MODEL 1
REMARK VINA RESULT:      -8.3      0.000      0.000
REMARK  2 active torsions:
REMARK  status: ('A' for Active; 'I' for Inactive)
REMARK    1  A    between atoms: C_5  and  C_6 
REMARK    2  A    between atoms: C_6  and  O_7 
ROOT
ATOM      1  O           0     111.074 166.385 138.042  0.00  0.00    -0.287 OA
ATOM      2  C           0     110.797 165.293 138.485  0.00  0.00     0.194 C 
ATOM      3  C           0     110.686 165.180 139.937  0.00  0.00     0.028 C 
ATOM      4  C           0     111.338 164.110 140.558  0.00  0.00     0.025 C 
ATOM      5  C           0     111.281 163.912 141.926  0.00  0.00    -0.033 C 
ATOM      6  C           0     110.631 164.797 142.729  0.00  0.00     0.021 C 
ATOM      7  C           0     110.015 165.928 142.164  0.00  0.00    -0.023 C 
ATOM      8  C           0     109.472 166.911 143.011  0.00  0.00     0.012 C 
ATOM      9  C           0     108.808 167.979 142.489  0.00  0.00     0.002 C 
ATOM     10  C           0     108.643 168.095 141.118  0.00  0.00     0.016 C 
ATOM     11  C           0     109.168 167.147 140.248  0.00  0.00     0.021 C 
ATOM     12  C           0     108.926 167.275 138.814  0.00  0.00     0.132 C 
ATOM     13  N           0     108.722 168.287 138.003  0.00  0.00    -0.283 N 
ATOM     14  HN          0     108.491 169.237 138.293  1.00  0.00     0.188 HD
ATOM     15  N           0     108.859 167.892 136.775  0.00  0.00    -0.283 N 
ATOM     16  HN          0     108.831 168.499 135.955  1.00  0.00     0.188 HD
ATOM     17  C           0     109.040 166.602 136.748  0.00  0.00     0.132 C 
ATOM     18  N           0     108.722 166.141 138.021  0.00  0.00    -0.325 N 
ATOM     19  HN          0     108.449 165.255 138.302  0.00  0.00     0.169 HD
ATOM     20  C           0     109.552 165.669 135.737  0.00  0.00     0.021 C 
ATOM     21  C           0     109.472 165.957 134.383  0.00  0.00     0.016 C 
ATOM     22  C           0     109.879 165.026 133.438  0.00  0.00     0.002 C 
ATOM     23  C           0     110.312 163.792 133.823  0.00  0.00     0.012 C 
ATOM     24  C           0     110.375 163.463 135.186  0.00  0.00    -0.024 C 
ATOM     25  C           0     110.597 162.141 135.608  0.00  0.00     0.019 C 
ATOM     26  C           0     110.757 161.878 136.934  0.00  0.00    -0.060 C 
ATOM     27  C           0     110.947 160.453 137.388  0.00  0.00     0.048 C 
ATOM     28  C           0     110.772 162.898 137.873  0.00  0.00     0.023 C 
ATOM     29  C           0     110.588 164.231 137.495  0.00  0.00     0.027 C 
ATOM     30  C           0     110.181 164.474 136.162  0.00  0.00     0.002 C 
ATOM     31  C           0     109.954 166.081 140.754  0.00  0.00     0.002 C 
ENDROOT
BRANCH   5  32
ATOM     32  C           0     111.963 162.715 142.536  0.00  0.00     0.202 C 
BRANCH  32  33
ATOM     33  O           0     111.735 161.568 141.715  0.00  0.00    -0.396 OA
ATOM     34  H           0     111.597 160.820 142.312  0.00  0.00     0.209 HD
ENDBRANCH  32  33
ENDBRANCH   5  32
TORSDOF 2
ENDMDL
MODEL 2
REMARK VINA RESULT:      -8.2      2.151      6.955
REMARK  2 active torsions:
REMARK  status: ('A' for Active; 'I' for Inactive)
REMARK    1  A    between atoms: C_5  and  C_6 
REMARK    2  A    between atoms: C_6  and  O_7 
ROOT
ATOM      1  O           0     112.093 164.328 137.391  0.00  0.00    -0.287 OA
ATOM      2  C           0     111.076 164.938 137.635  0.00  0.00     0.194 C 
ATOM      3  C           0     110.405 165.580 136.508  0.00  0.00     0.028 C 
ATOM      4  C           0     109.997 166.909 136.664  0.00  0.00     0.025 C 
ATOM      5  C           0     109.343 167.597 135.659  0.00  0.00    -0.033 C 
ATOM      6  C           0     109.128 167.018 134.447  0.00  0.00     0.021 C 
ATOM      7  C           0     109.578 165.706 134.212  0.00  0.00    -0.023 C 
ATOM      8  C           0     109.481 165.167 132.917  0.00  0.00     0.012 C 
ATOM      9  C           0     109.844 163.876 132.679  0.00  0.00     0.002 C 
ATOM     10  C           0     110.292 163.076 133.718  0.00  0.00     0.016 C 
ATOM     11  C           0     110.405 163.572 135.011  0.00  0.00     0.021 C 
ATOM     12  C           0     110.827 162.683 136.089  0.00  0.00     0.132 C 
ATOM     13  N           0     111.587 161.614 136.154  0.00  0.00    -0.283 N 
ATOM     14  HN          0     111.893 161.060 135.355  1.00  0.00     0.188 HD
ATOM     15  N           0     111.889 161.372 137.393  0.00  0.00    -0.283 N 
ATOM     16  HN          0     112.531 160.646 137.710  1.00  0.00     0.188 HD
ATOM     17  C           0     111.246 162.199 138.169  0.00  0.00     0.132 C 
ATOM     18  N           0     110.283 162.807 137.371  0.00  0.00    -0.325 N 
ATOM     19  HN          0     109.452 163.231 137.630  0.00  0.00     0.169 HD
ATOM     20  C           0     111.410 162.613 139.567  0.00  0.00     0.021 C 
ATOM     21  C           0     112.016 161.785 140.499  0.00  0.00     0.016 C 
ATOM     22  C           0     112.082 162.156 141.835  0.00  0.00     0.002 C 
ATOM     23  C           0     111.504 163.315 142.261  0.00  0.00     0.012 C 
ATOM     24  C           0     110.858 164.158 141.344  0.00  0.00    -0.024 C 
ATOM     25  C           0     110.064 165.234 141.776  0.00  0.00     0.019 C 
ATOM     26  C           0     109.540 166.092 140.857  0.00  0.00    -0.060 C 
ATOM     27  C           0     108.650 167.217 141.319  0.00  0.00     0.048 C 
ATOM     28  C           0     109.830 165.965 139.507  0.00  0.00     0.023 C 
ATOM     29  C           0     110.642 164.929 139.036  0.00  0.00     0.027 C 
ATOM     30  C           0     110.981 163.906 139.953  0.00  0.00     0.002 C 
ATOM     31  C           0     110.136 164.940 135.270  0.00  0.00     0.002 C 
ENDROOT
BRANCH   5  32
ATOM     32  C           0     108.884 169.012 135.900  0.00  0.00     0.202 C 
BRANCH  32  33
ATOM     33  O           0     107.595 168.995 136.517  0.00  0.00    -0.396 OA
ATOM     34  H           0     106.999 169.479 135.930  0.00  0.00     0.209 HD
ENDBRANCH  32  33
ENDBRANCH   5  32
TORSDOF 2
ENDMDL
MODEL 3
REMARK VINA RESULT:      -8.0      1.572      2.646
REMARK  2 active torsions:
REMARK  status: ('A' for Active; 'I' for Inactive)
REMARK    1  A    between atoms: C_5  and  C_6 
REMARK    2  A    between atoms: C_6  and  O_7 
ROOT
ATOM      1  O           0     111.285 166.803 140.124  0.00  0.00    -0.287 OA
ATOM      2  C           0     111.090 165.608 140.139  0.00  0.00     0.194 C 
ATOM      3  C           0     111.443 164.898 141.366  0.00  0.00     0.028 C 
ATOM      4  C           0     112.185 163.719 141.245  0.00  0.00     0.025 C 
ATOM      5  C           0     112.555 162.970 142.347  0.00  0.00    -0.033 C 
ATOM      6  C           0     112.260 163.394 143.606  0.00  0.00     0.021 C 
ATOM      7  C           0     111.574 164.608 143.788  0.00  0.00    -0.023 C 
ATOM      8  C           0     111.401 165.111 145.091  0.00  0.00     0.012 C 
ATOM      9  C           0     110.679 166.246 145.300  0.00  0.00     0.002 C 
ATOM     10  C           0     110.092 166.906 144.231  0.00  0.00     0.016 C 
ATOM     11  C           0     110.244 166.443 142.930  0.00  0.00     0.021 C 
ATOM     12  C           0     109.564 167.133 141.838  0.00  0.00     0.132 C 
ATOM     13  N           0     109.181 168.372 141.630  0.00  0.00    -0.283 N 
ATOM     14  HN          0     109.121 169.097 142.344  1.00  0.00     0.188 HD
ATOM     15  N           0     108.890 168.530 140.375  0.00  0.00    -0.283 N 
ATOM     16  HN          0     108.642 169.417 139.937  1.00  0.00     0.188 HD
ATOM     17  C           0     108.964 167.383 139.761  0.00  0.00     0.132 C 
ATOM     18  N           0     109.040 166.416 140.757  0.00  0.00    -0.325 N 
ATOM     19  HN          0     108.810 165.476 140.718  0.00  0.00     0.169 HD
ATOM     20  C           0     109.059 166.992 138.350  0.00  0.00     0.021 C 
ATOM     21  C           0     108.569 167.806 137.341  0.00  0.00     0.016 C 
ATOM     22  C           0     108.586 167.382 136.019  0.00  0.00     0.002 C 
ATOM     23  C           0     109.034 166.134 135.699  0.00  0.00     0.012 C 
ATOM     24  C           0     109.508 165.277 136.705  0.00  0.00    -0.024 C 
ATOM     25  C           0     109.762 163.919 136.446  0.00  0.00     0.019 C 
ATOM     26  C           0     110.320 163.145 137.417  0.00  0.00    -0.060 C 
ATOM     27  C           0     110.547 161.678 137.154  0.00  0.00     0.048 C 
ATOM     28  C           0     110.705 163.685 138.635  0.00  0.00     0.023 C 
ATOM     29  C           0     110.502 165.037 138.923  0.00  0.00     0.027 C 
ATOM     30  C           0     109.707 165.778 138.017  0.00  0.00     0.002 C 
ATOM     31  C           0     111.076 165.325 142.668  0.00  0.00     0.002 C 
ENDROOT
BRANCH   5  32
ATOM     32  C           0     113.313 161.682 142.154  0.00  0.00     0.202 C 
BRANCH  32  33
ATOM     33  O           0     113.295 161.323 140.771  0.00  0.00    -0.396 OA
ATOM     34  H           0     112.489 161.700 140.395  0.00  0.00     0.209 HD
ENDBRANCH  32  33
ENDBRANCH   5  32
TORSDOF 2
ENDMDL
MODEL 4
REMARK VINA RESULT:      -7.9      2.620      7.450
REMARK  2 active torsions:
REMARK  status: ('A' for Active; 'I' for Inactive)
REMARK    1  A    between atoms: C_5  and  C_6 
REMARK    2  A    between atoms: C_6  and  O_7 
ROOT
ATOM      1  O           0     112.672 164.379 140.447  0.00  0.00    -0.287 OA
ATOM      2  C           0     111.512 164.679 140.270  0.00  0.00     0.194 C 
ATOM      3  C           0     110.938 164.353 138.967  0.00  0.00     0.028 C 
ATOM      4  C           0     110.206 165.348 138.311  0.00  0.00     0.025 C 
ATOM      5  C           0     109.614 165.131 137.080  0.00  0.00    -0.033 C 
ATOM      6  C           0     109.779 163.948 136.429  0.00  0.00     0.021 C 
ATOM      7  C           0     110.563 162.936 137.012  0.00  0.00    -0.023 C 
ATOM      8  C           0     110.847 161.774 136.272  0.00  0.00     0.012 C 
ATOM      9  C           0     111.543 160.750 136.839  0.00  0.00     0.002 C 
ATOM     10  C           0     111.959 160.836 138.158  0.00  0.00     0.016 C 
ATOM     11  C           0     111.701 161.968 138.921  0.00  0.00     0.021 C 
ATOM     12  C           0     112.105 161.998 140.323  0.00  0.00     0.132 C 
ATOM     13  N           0     113.069 161.434 141.014  0.00  0.00    -0.283 N 
ATOM     14  HN          0     113.645 160.656 140.694  1.00  0.00     0.188 HD
ATOM     15  N           0     113.175 162.019 142.167  0.00  0.00    -0.283 N 
ATOM     16  HN          0     113.897 161.825 142.861  1.00  0.00     0.188 HD
ATOM     17  C           0     112.218 162.894 142.303  0.00  0.00     0.132 C 
ATOM     18  N           0     111.311 162.635 141.282  0.00  0.00    -0.325 N 
ATOM     19  HN          0     110.369 162.855 141.229  0.00  0.00     0.169 HD
ATOM     20  C           0     112.008 164.036 143.200  0.00  0.00     0.021 C 
ATOM     21  C           0     112.601 164.090 144.452  0.00  0.00     0.016 C 
ATOM     22  C           0     112.320 165.133 145.323  0.00  0.00     0.002 C 
ATOM     23  C           0     111.414 166.094 144.982  0.00  0.00     0.012 C 
ATOM     24  C           0     110.776 166.048 143.733  0.00  0.00    -0.024 C 
ATOM     25  C           0     109.682 166.881 143.440  0.00  0.00     0.019 C 
ATOM     26  C           0     109.157 166.883 142.184  0.00  0.00    -0.060 C 
ATOM     27  C           0     107.955 167.741 141.886  0.00  0.00     0.048 C 
ATOM     28  C           0     109.723 166.129 141.167  0.00  0.00     0.023 C 
ATOM     29  C           0     110.832 165.311 141.404  0.00  0.00     0.027 C 
ATOM     30  C           0     111.220 165.124 142.752  0.00  0.00     0.002 C 
ATOM     31  C           0     111.072 163.093 138.329  0.00  0.00     0.002 C 
ENDROOT
BRANCH   5  32
ATOM     32  C           0     108.797 166.224 136.443  0.00  0.00     0.202 C 
BRANCH  32  33
ATOM     33  O           0     107.556 166.358 137.138  0.00  0.00    -0.396 OA
ATOM     34  H           0     107.228 167.249 136.956  0.00  0.00     0.209 HD
ENDBRANCH  32  33
ENDBRANCH   5  32
TORSDOF 2
ENDMDL
MODEL 5
REMARK VINA RESULT:      -7.9      7.669      9.442
REMARK  2 active torsions:
REMARK  status: ('A' for Active; 'I' for Inactive)
REMARK    1  A    between atoms: C_5  and  C_6 
REMARK    2  A    between atoms: C_6  and  O_7 
ROOT
ATOM      1  O           0     112.611 174.231 135.784  0.00  0.00    -0.287 OA
ATOM      2  C           0     111.590 173.601 135.940  0.00  0.00     0.194 C 
ATOM      3  C           0     111.126 173.428 137.314  0.00  0.00     0.028 C 
ATOM      4  C           0     110.744 172.144 137.715  0.00  0.00     0.025 C 
ATOM      5  C           0     110.279 171.882 138.991  0.00  0.00    -0.033 C 
ATOM      6  C           0     110.238 172.866 139.930  0.00  0.00     0.021 C 
ATOM      7  C           0     110.675 174.162 139.601  0.00  0.00    -0.023 C 
ATOM      8  C           0     110.766 175.135 140.613  0.00  0.00     0.012 C 
ATOM      9  C           0     111.117 176.414 140.307  0.00  0.00     0.002 C 
ATOM     10  C           0     111.369 176.773 138.993  0.00  0.00     0.016 C 
ATOM     11  C           0     111.295 175.840 137.966  0.00  0.00     0.021 C 
ATOM     12  C           0     111.512 176.269 136.587  0.00  0.00     0.132 C 
ATOM     13  N           0     112.216 177.221 136.021  0.00  0.00    -0.283 N 
ATOM     14  HN          0     112.625 178.019 136.507  1.00  0.00     0.188 HD
ATOM     15  N           0     112.311 176.991 134.748  0.00  0.00    -0.283 N 
ATOM     16  HN          0     112.870 177.536 134.092  1.00  0.00     0.188 HD
ATOM     17  C           0     111.582 175.957 134.435  0.00  0.00     0.132 C 
ATOM     18  N           0     110.777 175.704 135.540  0.00  0.00    -0.325 N 
ATOM     19  HN          0     109.931 175.236 135.587  0.00  0.00     0.169 HD
ATOM     20  C           0     111.538 175.061 133.274  0.00  0.00     0.021 C 
ATOM     21  C           0     111.962 175.480 132.022  0.00  0.00     0.016 C 
ATOM     22  C           0     111.830 174.650 130.917  0.00  0.00     0.002 C 
ATOM     23  C           0     111.231 173.431 131.035  0.00  0.00     0.012 C 
ATOM     24  C           0     110.766 172.994 132.285  0.00  0.00    -0.024 C 
ATOM     25  C           0     109.950 171.855 132.403  0.00  0.00     0.019 C 
ATOM     26  C           0     109.606 171.401 133.639  0.00  0.00    -0.060 C 
ATOM     27  C           0     108.693 170.209 133.762  0.00  0.00     0.048 C 
ATOM     28  C           0     110.100 172.000 134.788  0.00  0.00     0.023 C 
ATOM     29  C           0     110.941 173.114 134.718  0.00  0.00     0.027 C 
ATOM     30  C           0     111.097 173.727 133.453  0.00  0.00     0.002 C 
ATOM     31  C           0     111.034 174.478 138.264  0.00  0.00     0.002 C 
ENDROOT
BRANCH   5  32
ATOM     32  C           0     109.836 170.489 139.353  0.00  0.00     0.202 C 
BRANCH  32  33
ATOM     33  O           0     108.891 170.024 138.387  0.00  0.00    -0.396 OA
ATOM     34  H           0     109.120 169.105 138.192  0.00  0.00     0.209 HD
ENDBRANCH  32  33
ENDBRANCH   5  32
TORSDOF 2
ENDMDL
MODEL 6
REMARK VINA RESULT:      -7.9     27.928     29.640
REMARK  2 active torsions:
REMARK  status: ('A' for Active; 'I' for Inactive)
REMARK    1  A    between atoms: C_5  and  C_6 
REMARK    2  A    between atoms: C_6  and  O_7 
ROOT
ATOM      1  O           0      94.566 187.837 141.878  0.00  0.00    -0.287 OA
ATOM      2  C           0      93.535 188.470 141.924  0.00  0.00     0.194 C 
ATOM      3  C           0      93.093 188.916 143.242  0.00  0.00     0.028 C 
ATOM      4  C           0      91.754 188.704 143.586  0.00  0.00     0.025 C 
ATOM      5  C           0      91.239 189.103 144.806  0.00  0.00    -0.033 C 
ATOM      6  C           0      92.043 189.664 145.749  0.00  0.00     0.021 C 
ATOM      7  C           0      93.413 189.837 145.483  0.00  0.00    -0.023 C 
ATOM      8  C           0      94.263 190.283 146.511  0.00  0.00     0.012 C 
ATOM      9  C           0      95.578 190.527 146.260  0.00  0.00     0.002 C 
ATOM     10  C           0      96.086 190.358 144.981  0.00  0.00     0.016 C 
ATOM     11  C           0      95.280 189.916 143.940  0.00  0.00     0.021 C 
ATOM     12  C           0      95.839 189.804 142.596  0.00  0.00     0.132 C 
ATOM     13  N           0      97.037 189.566 142.115  0.00  0.00    -0.283 N 
ATOM     14  HN          0      97.904 189.606 142.650  1.00  0.00     0.188 HD
ATOM     15  N           0      96.948 189.272 140.854  0.00  0.00    -0.283 N 
ATOM     16  HN          0      97.723 188.970 140.265  1.00  0.00     0.188 HD
ATOM     17  C           0      95.716 189.423 140.457  0.00  0.00     0.132 C 
ATOM     18  N           0      95.064 190.113 141.473  0.00  0.00    -0.325 N 
ATOM     19  HN          0      94.263 190.655 141.429  0.00  0.00     0.169 HD
ATOM     20  C           0      94.964 188.959 139.285  0.00  0.00     0.021 C 
ATOM     21  C           0      95.600 188.671 138.087  0.00  0.00     0.016 C 
ATOM     22  C           0      94.864 188.319 136.964  0.00  0.00     0.002 C 
ATOM     23  C           0      93.501 188.306 137.005  0.00  0.00     0.012 C 
ATOM     24  C           0      92.831 188.623 138.197  0.00  0.00    -0.024 C 
ATOM     25  C           0      91.442 188.839 138.218  0.00  0.00     0.019 C 
ATOM     26  C           0      90.812 189.040 139.408  0.00  0.00    -0.060 C 
ATOM     27  C           0      89.331 189.318 139.423  0.00  0.00     0.048 C 
ATOM     28  C           0      91.503 188.969 140.608  0.00  0.00     0.023 C 
ATOM     29  C           0      92.878 188.723 140.637  0.00  0.00     0.027 C 
ATOM     30  C           0      93.567 188.759 139.401  0.00  0.00     0.002 C 
ATOM     31  C           0      93.933 189.553 144.192  0.00  0.00     0.002 C 
ENDROOT
BRANCH   5  32
ATOM     32  C           0      89.777 188.893 145.103  0.00  0.00     0.202 C 
BRANCH  32  33
ATOM     33  O           0      89.204 188.051 144.101  0.00  0.00    -0.396 OA
ATOM     34  H           0      89.605 188.306 143.259  0.00  0.00     0.209 HD
ENDBRANCH  32  33
ENDBRANCH   5  32
TORSDOF 2
ENDMDL
MODEL 7
REMARK VINA RESULT:      -7.8      2.837      5.236
REMARK  2 active torsions:
REMARK  status: ('A' for Active; 'I' for Inactive)
REMARK    1  A    between atoms: C_5  and  C_6 
REMARK    2  A    between atoms: C_6  and  O_7 
ROOT
ATOM      1  O           0     109.949 163.313 141.515  0.00  0.00    -0.287 OA
ATOM      2  C           0     110.224 164.406 141.072  0.00  0.00     0.194 C 
ATOM      3  C           0     110.172 165.528 142.005  0.00  0.00     0.028 C 
ATOM      4  C           0     109.504 166.686 141.594  0.00  0.00     0.025 C 
ATOM      5  C           0     109.413 167.805 142.402  0.00  0.00    -0.033 C 
ATOM      6  C           0     109.922 167.794 143.663  0.00  0.00     0.021 C 
ATOM      7  C           0     110.545 166.632 144.153  0.00  0.00    -0.023 C 
ATOM      8  C           0     110.939 166.579 145.502  0.00  0.00     0.012 C 
ATOM      9  C           0     111.608 165.495 145.982  0.00  0.00     0.002 C 
ATOM     10  C           0     111.924 164.441 145.139  0.00  0.00     0.016 C 
ATOM     11  C           0     111.549 164.454 143.801  0.00  0.00     0.021 C 
ATOM     12  C           0     111.949 163.352 142.931  0.00  0.00     0.132 C 
ATOM     13  N           0     112.196 162.076 143.119  0.00  0.00    -0.283 N 
ATOM     14  HN          0     112.347 161.633 144.025  1.00  0.00     0.188 HD
ATOM     15  N           0     112.221 161.467 141.974  0.00  0.00    -0.283 N 
ATOM     16  HN          0     112.315 160.459 141.846  1.00  0.00     0.188 HD
ATOM     17  C           0     112.106 162.339 141.012  0.00  0.00     0.132 C 
ATOM     18  N           0     112.296 163.586 141.597  0.00  0.00    -0.325 N 
ATOM     19  HN          0     112.577 164.418 141.188  0.00  0.00     0.169 HD
ATOM     20  C           0     111.760 162.240 139.589  0.00  0.00     0.021 C 
ATOM     21  C           0     111.982 161.076 138.871  0.00  0.00     0.016 C 
ATOM     22  C           0     111.732 161.028 137.507  0.00  0.00     0.002 C 
ATOM     23  C           0     111.316 162.143 136.840  0.00  0.00     0.012 C 
ATOM     24  C           0     111.112 163.344 137.537  0.00  0.00    -0.024 C 
ATOM     25  C           0     110.906 164.557 136.857  0.00  0.00     0.019 C 
ATOM     26  C           0     110.606 165.681 137.565  0.00  0.00    -0.060 C 
ATOM     27  C           0     110.433 166.989 136.838  0.00  0.00     0.048 C 
ATOM     28  C           0     110.434 165.639 138.941  0.00  0.00     0.023 C 
ATOM     29  C           0     110.597 164.449 139.654  0.00  0.00     0.027 C 
ATOM     30  C           0     111.143 163.346 138.955  0.00  0.00     0.002 C 
ATOM     31  C           0     110.761 165.520 143.297  0.00  0.00     0.002 C 
ENDROOT
BRANCH   5  32
ATOM     32  C           0     108.722 169.041 141.888  0.00  0.00     0.202 C 
BRANCH  32  33
ATOM     33  O           0     109.101 170.164 142.686  0.00  0.00    -0.396 OA
ATOM     34  H           0     108.305 170.699 142.811  0.00  0.00     0.209 HD
ENDBRANCH  32  33
ENDBRANCH   5  32
TORSDOF 2
ENDMDL
MODEL 8
REMARK VINA RESULT:      -7.8     33.316     34.825
REMARK  2 active torsions:
REMARK  status: ('A' for Active; 'I' for Inactive)
REMARK    1  A    between atoms: C_5  and  C_6 
REMARK    2  A    between atoms: C_6  and  O_7 
ROOT
ATOM      1  O           0     143.945 158.123 132.306  0.00  0.00    -0.287 OA
ATOM      2  C           0     143.299 157.584 133.176  0.00  0.00     0.194 C 
ATOM      3  C           0     143.802 156.307 133.675  0.00  0.00     0.028 C 
ATOM      4  C           0     142.893 155.251 133.796  0.00  0.00     0.025 C 
ATOM      5  C           0     143.271 154.009 134.271  0.00  0.00    -0.033 C 
ATOM      6  C           0     144.571 153.750 134.580  0.00  0.00     0.021 C 
ATOM      7  C           0     145.540 154.755 134.411  0.00  0.00    -0.023 C 
ATOM      8  C           0     146.898 154.438 134.594  0.00  0.00     0.012 C 
ATOM      9  C           0     147.849 155.408 134.507  0.00  0.00     0.002 C 
ATOM     10  C           0     147.484 156.722 134.258  0.00  0.00     0.016 C 
ATOM     11  C           0     146.153 157.075 134.068  0.00  0.00     0.021 C 
ATOM     12  C           0     145.803 158.477 133.864  0.00  0.00     0.132 C 
ATOM     13  N           0     146.422 159.513 133.348  0.00  0.00    -0.283 N 
ATOM     14  HN          0     147.421 159.563 133.150  1.00  0.00     0.188 HD
ATOM     15  N           0     145.566 160.464 133.128  0.00  0.00    -0.283 N 
ATOM     16  HN          0     145.774 161.345 132.660  1.00  0.00     0.188 HD
ATOM     17  C           0     144.400 160.119 133.597  0.00  0.00     0.132 C 
ATOM     18  N           0     144.620 159.001 134.395  0.00  0.00    -0.325 N 
ATOM     19  HN          0     144.085 158.653 135.123  0.00  0.00     0.169 HD
ATOM     20  C           0     143.034 160.606 133.377  0.00  0.00     0.021 C 
ATOM     21  C           0     142.788 161.911 132.978  0.00  0.00     0.016 C 
ATOM     22  C           0     141.487 162.380 132.860  0.00  0.00     0.002 C 
ATOM     23  C           0     140.431 161.583 133.189  0.00  0.00     0.012 C 
ATOM     24  C           0     140.652 160.267 133.625  0.00  0.00    -0.024 C 
ATOM     25  C           0     139.615 159.499 134.183  0.00  0.00     0.019 C 
ATOM     26  C           0     139.842 158.194 134.496  0.00  0.00    -0.060 C 
ATOM     27  C           0     138.743 157.386 135.139  0.00  0.00     0.048 C 
ATOM     28  C           0     141.056 157.586 134.214  0.00  0.00     0.023 C 
ATOM     29  C           0     142.104 158.303 133.629  0.00  0.00     0.027 C 
ATOM     30  C           0     141.952 159.706 133.531  0.00  0.00     0.002 C 
ATOM     31  C           0     145.151 156.071 134.048  0.00  0.00     0.002 C 
ENDROOT
BRANCH   5  32
ATOM     32  C           0     142.238 152.923 134.426  0.00  0.00     0.202 C 
BRANCH  32  33
ATOM     33  O           0     141.618 153.036 135.708  0.00  0.00    -0.396 OA
ATOM     34  H           0     142.320 152.941 136.367  0.00  0.00     0.209 HD
ENDBRANCH  32  33
ENDBRANCH   5  32
TORSDOF 2
ENDMDL
MODEL 9
REMARK VINA RESULT:      -7.8      1.755      6.028
REMARK  2 active torsions:
REMARK  status: ('A' for Active; 'I' for Inactive)
REMARK    1  A    between atoms: C_5  and  C_6 
REMARK    2  A    between atoms: C_6  and  O_7 
ROOT
ATOM      1  O           0     108.315 165.267 137.008  0.00  0.00    -0.287 OA
ATOM      2  C           0     109.425 164.785 136.969  0.00  0.00     0.194 C 
ATOM      3  C           0     109.885 164.294 135.673  0.00  0.00     0.028 C 
ATOM      4  C           0     110.470 163.024 135.628  0.00  0.00     0.025 C 
ATOM      5  C           0     110.948 162.479 134.450  0.00  0.00    -0.033 C 
ATOM      6  C           0     110.806 163.142 133.270  0.00  0.00     0.021 C 
ATOM      7  C           0     110.164 164.394 133.247  0.00  0.00    -0.023 C 
ATOM      8  C           0     109.894 165.005 132.010  0.00  0.00     0.012 C 
ATOM      9  C           0     109.338 166.247 131.963  0.00  0.00     0.002 C 
ATOM     10  C           0     109.054 166.928 133.136  0.00  0.00     0.016 C 
ATOM     11  C           0     109.303 166.357 134.378  0.00  0.00     0.021 C 
ATOM     12  C           0     109.043 167.128 135.590  0.00  0.00     0.132 C 
ATOM     13  N           0     108.200 168.083 135.908  0.00  0.00    -0.283 N 
ATOM     14  HN          0     107.654 168.632 135.244  1.00  0.00     0.188 HD
ATOM     15  N           0     108.169 168.221 137.198  0.00  0.00    -0.283 N 
ATOM     16  HN          0     107.538 168.839 137.708  1.00  0.00     0.188 HD
ATOM     17  C           0     109.066 167.448 137.742  0.00  0.00     0.132 C 
ATOM     18  N           0     109.882 167.012 136.703  0.00  0.00    -0.325 N 
ATOM     19  HN          0     110.793 166.688 136.735  0.00  0.00     0.169 HD
ATOM     20  C           0     109.281 166.945 139.104  0.00  0.00     0.021 C 
ATOM     21  C           0     108.817 167.639 140.211  0.00  0.00     0.016 C 
ATOM     22  C           0     109.106 167.196 141.494  0.00  0.00     0.002 C 
ATOM     23  C           0     109.898 166.103 141.687  0.00  0.00     0.012 C 
ATOM     24  C           0     110.407 165.399 140.584  0.00  0.00    -0.024 C 
ATOM     25  C           0     111.399 164.416 140.740  0.00  0.00     0.019 C 
ATOM     26  C           0     111.791 163.682 139.663  0.00  0.00    -0.060 C 
ATOM     27  C           0     112.889 162.662 139.822  0.00  0.00     0.048 C 
ATOM     28  C           0     111.183 163.838 138.426  0.00  0.00     0.023 C 
ATOM     29  C           0     110.169 164.780 138.233  0.00  0.00     0.027 C 
ATOM     30  C           0     109.936 165.702 139.281  0.00  0.00     0.002 C 
ATOM     31  C           0     109.782 165.025 134.461  0.00  0.00     0.002 C 
ENDROOT
BRANCH   5  32
ATOM     32  C           0     111.611 161.127 134.469  0.00  0.00     0.202 C 
BRANCH  32  33
ATOM     33  O           0     112.060 160.836 135.794  0.00  0.00    -0.396 OA
ATOM     34  H           0     112.673 160.091 135.724  0.00  0.00     0.209 HD
ENDBRANCH  32  33
ENDBRANCH   5  32
TORSDOF 2
ENDMDL
