REMARK  2 active torsions:
REMARK  status: ('A' for Active; 'I' for Inactive)
REMARK    1  A    between atoms: C_9  and  O_10 
REMARK    2  A    between atoms: C_24  and  O_32 
ROOT
ATOM      1  O           0      -0.132  -0.180   1.437  0.00  0.00    -0.287 OA
ATOM      2  C           0      -0.031   0.771   0.695  0.00  0.00     0.194 C 
ATOM      3  C           0       1.316   1.286   0.458  0.00  0.00     0.027 C 
ATOM      4  C           0       1.510   2.667   0.554  0.00  0.00     0.016 C 
ATOM      5  C           0       2.743   3.253   0.331  0.00  0.00     0.002 C 
ATOM      6  C           0       3.837   2.487   0.070  0.00  0.00     0.012 C 
ATOM      7  C           0       3.712   1.087   0.033  0.00  0.00    -0.021 C 
ATOM      8  C           0       4.871   0.301  -0.092  0.00  0.00     0.049 C 
ATOM      9  C           0       4.772  -1.068  -0.191  0.00  0.00     0.070 C 
ATOM     10  C           0       3.521  -1.674  -0.202  0.00  0.00     0.053 C 
ATOM     11  C           0       2.359  -0.923  -0.088  0.00  0.00     0.024 C 
ATOM     12  C           0       1.064  -1.592  -0.169  0.00  0.00     0.133 C 
ATOM     13  N           0       0.632  -2.796   0.128  0.00  0.00    -0.283 N 
ATOM     14  HN          0       1.225  -3.606   0.309  1.00  0.00     0.188 HD
ATOM     15  N           0      -0.666  -2.796   0.156  0.00  0.00    -0.283 N 
ATOM     16  HN          0      -1.248  -3.584   0.439  1.00  0.00     0.188 HD
ATOM     17  C           0      -1.111  -1.634  -0.233  0.00  0.00     0.133 C 
ATOM     18  N           0      -0.024  -0.972  -0.791  0.00  0.00    -0.325 N 
ATOM     19  HN          0      -0.013  -0.247  -1.434  0.00  0.00     0.169 HD
ATOM     20  C           0      -2.404  -0.951  -0.113  0.00  0.00     0.024 C 
ATOM     21  C           0      -3.584  -1.664   0.015  0.00  0.00     0.053 C 
ATOM     22  C           0      -4.813  -1.006   0.030  0.00  0.00     0.070 C 
ATOM     23  C           0      -4.869   0.361  -0.131  0.00  0.00     0.049 C 
ATOM     24  C           0      -3.684   1.098  -0.285  0.00  0.00    -0.021 C 
ATOM     25  C           0      -3.714   2.449  -0.670  0.00  0.00     0.012 C 
ATOM     26  C           0      -2.554   3.164  -0.705  0.00  0.00     0.002 C 
ATOM     27  C           0      -1.351   2.598  -0.312  0.00  0.00     0.016 C 
ATOM     28  C           0      -1.279   1.267   0.110  0.00  0.00     0.027 C 
ATOM     29  C           0      -2.430   0.465  -0.080  0.00  0.00     0.003 C 
ATOM     30  C           0       2.435   0.475   0.132  0.00  0.00     0.003 C 
ENDROOT
BRANCH   9  31
ATOM     31  O           0       5.895  -1.825  -0.288  0.00  0.00    -0.356 OA
ATOM     32  C           0       7.004  -0.924  -0.260  0.00  0.00     0.210 C 
ENDBRANCH   9  31
BRANCH  22  33
ATOM     33  O           0      -5.957  -1.716   0.204  0.00  0.00    -0.356 OA
ATOM     34  C           0      -7.034  -0.776   0.174  0.00  0.00     0.210 C 
ENDBRANCH  22  33
TORSDOF 2
