MODEL 1
REMARK VINA RESULT:      -8.0      0.000      0.000
REMARK  2 active torsions:
REMARK  status: ('A' for Active; 'I' for Inactive)
REMARK    1  A    between atoms: C_5  and  O_6 
REMARK    2  A    between atoms: C_28  and  O_29 
ROOT
ATOM      1  O           0     111.048 166.507 137.973  0.00  0.00    -0.287 OA
ATOM      2  C           0     110.783 165.401 138.384  0.00  0.00     0.194 C 
ATOM      3  C           0     110.703 165.234 139.834  0.00  0.00     0.029 C 
ATOM      4  C           0     111.372 164.143 140.395  0.00  0.00     0.053 C 
ATOM      5  C           0     111.338 163.881 141.759  0.00  0.00     0.070 C 
ATOM      6  C           0     110.696 164.743 142.615  0.00  0.00     0.049 C 
ATOM      7  C           0     110.078 165.897 142.102  0.00  0.00    -0.021 C 
ATOM      8  C           0     109.560 166.852 142.996  0.00  0.00     0.012 C 
ATOM      9  C           0     108.893 167.942 142.528  0.00  0.00     0.002 C 
ATOM     10  C           0     108.698 168.108 141.166  0.00  0.00     0.016 C 
ATOM     11  C           0     109.195 167.189 140.252  0.00  0.00     0.021 C 
ATOM     12  C           0     108.915 167.366 138.830  0.00  0.00     0.132 C 
ATOM     13  N           0     108.686 168.404 138.058  0.00  0.00    -0.283 N 
ATOM     14  HN          0     108.459 169.342 138.386  1.00  0.00     0.188 HD
ATOM     15  N           0     108.796 168.052 136.813  0.00  0.00    -0.283 N 
ATOM     16  HN          0     108.744 168.686 136.015  1.00  0.00     0.188 HD
ATOM     17  C           0     108.982 166.765 136.739  0.00  0.00     0.132 C 
ATOM     18  N           0     108.698 166.260 138.003  0.00  0.00    -0.325 N 
ATOM     19  HN          0     108.437 165.363 138.260  0.00  0.00     0.169 HD
ATOM     20  C           0     109.470 165.869 135.684  0.00  0.00     0.021 C 
ATOM     21  C           0     109.360 166.207 134.344  0.00  0.00     0.016 C 
ATOM     22  C           0     109.743 165.310 133.354  0.00  0.00     0.002 C 
ATOM     23  C           0     110.185 164.063 133.684  0.00  0.00     0.012 C 
ATOM     24  C           0     110.282 163.686 135.034  0.00  0.00    -0.021 C 
ATOM     25  C           0     110.519 162.350 135.399  0.00  0.00     0.049 C 
ATOM     26  C           0     110.705 162.035 136.726  0.00  0.00     0.070 C 
ATOM     27  C           0     110.739 163.030 137.699  0.00  0.00     0.053 C 
ATOM     28  C           0     110.549 164.373 137.366  0.00  0.00     0.029 C 
ATOM     29  C           0     110.111 164.662 136.051  0.00  0.00     0.003 C 
ATOM     30  C           0     109.989 166.103 140.700  0.00  0.00     0.003 C 
ENDROOT
BRANCH   5  31
ATOM     31  O           0     111.962 162.780 142.251  0.00  0.00    -0.356 OA
ATOM     32  C           0     112.027 161.830 141.186  0.00  0.00     0.210 C 
ENDBRANCH   5  31
BRANCH  26  33
ATOM     33  O           0     110.884 160.738 137.089  0.00  0.00    -0.356 OA
ATOM     34  C           0     112.210 160.633 137.609  0.00  0.00     0.210 C 
ENDBRANCH  26  33
TORSDOF 2
ENDMDL
MODEL 2
REMARK VINA RESULT:      -7.9      7.533      9.374
REMARK  2 active torsions:
REMARK  status: ('A' for Active; 'I' for Inactive)
REMARK    1  A    between atoms: C_5  and  O_6 
REMARK    2  A    between atoms: C_28  and  O_29 
ROOT
ATOM      1  O           0     112.487 174.280 135.602  0.00  0.00    -0.287 OA
ATOM      2  C           0     111.482 173.625 135.747  0.00  0.00     0.194 C 
ATOM      3  C           0     111.052 173.364 137.120  0.00  0.00     0.029 C 
ATOM      4  C           0     110.702 172.051 137.447  0.00  0.00     0.053 C 
ATOM      5  C           0     110.257 171.702 138.716  0.00  0.00     0.070 C 
ATOM      6  C           0     110.219 172.641 139.720  0.00  0.00     0.049 C 
ATOM      7  C           0     110.640 173.956 139.455  0.00  0.00    -0.021 C 
ATOM      8  C           0     110.746 174.869 140.520  0.00  0.00     0.012 C 
ATOM      9  C           0     111.079 176.167 140.283  0.00  0.00     0.002 C 
ATOM     10  C           0     111.294 176.606 138.986  0.00  0.00     0.016 C 
ATOM     11  C           0     111.200 175.735 137.908  0.00  0.00     0.021 C 
ATOM     12  C           0     111.372 176.249 136.552  0.00  0.00     0.132 C 
ATOM     13  N           0     112.041 177.248 136.024  0.00  0.00    -0.283 N 
ATOM     14  HN          0     112.447 178.025 136.544  1.00  0.00     0.188 HD
ATOM     15  N           0     112.107 177.093 134.736  0.00  0.00    -0.283 N 
ATOM     16  HN          0     112.637 177.687 134.098  1.00  0.00     0.188 HD
ATOM     17  C           0     111.392 176.062 134.384  0.00  0.00     0.132 C 
ATOM     18  N           0     110.623 175.728 135.493  0.00  0.00    -0.325 N 
ATOM     19  HN          0     109.788 175.239 135.534  0.00  0.00     0.169 HD
ATOM     20  C           0     111.333 175.235 133.174  0.00  0.00     0.021 C 
ATOM     21  C           0     111.720 175.733 131.940  0.00  0.00     0.016 C 
ATOM     22  C           0     111.573 174.968 130.790  0.00  0.00     0.002 C 
ATOM     23  C           0     110.997 173.734 130.849  0.00  0.00     0.012 C 
ATOM     24  C           0     110.572 173.215 132.083  0.00  0.00    -0.021 C 
ATOM     25  C           0     109.782 172.055 132.150  0.00  0.00     0.049 C 
ATOM     26  C           0     109.467 171.521 133.380  0.00  0.00     0.070 C 
ATOM     27  C           0     109.984 172.069 134.550  0.00  0.00     0.053 C 
ATOM     28  C           0     110.807 173.198 134.518  0.00  0.00     0.029 C 
ATOM     29  C           0     110.920 173.885 133.285  0.00  0.00     0.003 C 
ATOM     30  C           0     110.965 174.355 138.132  0.00  0.00     0.003 C 
ENDROOT
BRANCH   5  31
ATOM     31  O           0     109.882 170.423 138.973  0.00  0.00    -0.356 OA
ATOM     32  C           0     109.551 170.360 140.361  0.00  0.00     0.210 C 
ENDBRANCH   5  31
BRANCH  26  33
ATOM     33  O           0     108.662 170.429 133.451  0.00  0.00    -0.356 OA
ATOM     34  C           0     109.015 169.733 134.647  0.00  0.00     0.210 C 
ENDBRANCH  26  33
TORSDOF 2
ENDMDL
MODEL 3
REMARK VINA RESULT:      -7.8      7.687     11.206
REMARK  2 active torsions:
REMARK  status: ('A' for Active; 'I' for Inactive)
REMARK    1  A    between atoms: C_5  and  O_6 
REMARK    2  A    between atoms: C_28  and  O_29 
ROOT
ATOM      1  O           0     110.361 175.821 140.082  0.00  0.00    -0.287 OA
ATOM      2  C           0     110.716 174.672 139.960  0.00  0.00     0.194 C 
ATOM      3  C           0     110.859 174.162 138.597  0.00  0.00     0.029 C 
ATOM      4  C           0     110.287 172.919 138.310  0.00  0.00     0.053 C 
ATOM      5  C           0     110.387 172.335 137.054  0.00  0.00     0.070 C 
ATOM      6  C           0     110.997 173.009 136.023  0.00  0.00     0.049 C 
ATOM      7  C           0     111.514 174.297 136.246  0.00  0.00    -0.021 C 
ATOM      8  C           0     111.996 175.040 135.153  0.00  0.00     0.012 C 
ATOM      9  C           0     112.569 176.259 135.350  0.00  0.00     0.002 C 
ATOM     10  C           0     112.705 176.767 136.632  0.00  0.00     0.016 C 
ATOM     11  C           0     112.241 176.064 137.736  0.00  0.00     0.021 C 
ATOM     12  C           0     112.458 176.604 139.076  0.00  0.00     0.132 C 
ATOM     13  N           0     112.587 177.813 139.572  0.00  0.00    -0.283 N 
ATOM     14  HN          0     112.761 178.657 139.027  1.00  0.00     0.188 HD
ATOM     15  N           0     112.459 177.769 140.863  0.00  0.00    -0.283 N 
ATOM     16  HN          0     112.440 178.580 141.481  1.00  0.00     0.188 HD
ATOM     17  C           0     112.360 176.528 141.248  0.00  0.00     0.132 C 
ATOM     18  N           0     112.722 175.752 140.152  0.00  0.00    -0.325 N 
ATOM     19  HN          0     113.054 174.843 140.129  0.00  0.00     0.169 HD
ATOM     20  C           0     111.899 175.883 142.483  0.00  0.00     0.021 C 
ATOM     21  C           0     111.939 176.545 143.700  0.00  0.00     0.016 C 
ATOM     22  C           0     111.584 175.891 144.874  0.00  0.00     0.002 C 
ATOM     23  C           0     111.242 174.571 144.854  0.00  0.00     0.012 C 
ATOM     24  C           0     111.218 173.870 143.637  0.00  0.00    -0.021 C 
ATOM     25  C           0     111.087 172.471 143.608  0.00  0.00     0.049 C 
ATOM     26  C           0     110.970 171.828 142.396  0.00  0.00     0.070 C 
ATOM     27  C           0     110.901 172.550 141.208  0.00  0.00     0.053 C 
ATOM     28  C           0     110.985 173.944 141.203  0.00  0.00     0.029 C 
ATOM     29  C           0     111.356 174.578 142.414  0.00  0.00     0.003 C 
ATOM     30  C           0     111.540 174.845 137.556  0.00  0.00     0.003 C 
ENDROOT
BRANCH   5  31
ATOM     31  O           0     109.857 171.104 136.837  0.00  0.00    -0.356 OA
ATOM     32  C           0     109.888 170.415 138.089  0.00  0.00     0.210 C 
ENDBRANCH   5  31
BRANCH  26  33
ATOM     33  O           0     110.894 170.472 142.360  0.00  0.00    -0.356 OA
ATOM     34  C           0     110.138 170.070 143.504  0.00  0.00     0.210 C 
ENDBRANCH  26  33
TORSDOF 2
ENDMDL
MODEL 4
REMARK VINA RESULT:      -7.8      2.709      7.570
REMARK  2 active torsions:
REMARK  status: ('A' for Active; 'I' for Inactive)
REMARK    1  A    between atoms: C_5  and  O_6 
REMARK    2  A    between atoms: C_28  and  O_29 
ROOT
ATOM      1  O           0     112.547 164.433 140.699  0.00  0.00    -0.287 OA
ATOM      2  C           0     111.427 164.816 140.453  0.00  0.00     0.194 C 
ATOM      3  C           0     110.903 164.522 139.120  0.00  0.00     0.029 C 
ATOM      4  C           0     110.288 165.567 138.425  0.00  0.00     0.053 C 
ATOM      5  C           0     109.736 165.388 137.163  0.00  0.00     0.070 C 
ATOM      6  C           0     109.848 164.176 136.523  0.00  0.00     0.049 C 
ATOM      7  C           0     110.531 163.120 137.153  0.00  0.00    -0.021 C 
ATOM      8  C           0     110.776 161.937 136.432  0.00  0.00     0.012 C 
ATOM      9  C           0     111.369 160.873 137.039  0.00  0.00     0.002 C 
ATOM     10  C           0     111.715 160.938 138.380  0.00  0.00     0.016 C 
ATOM     11  C           0     111.490 162.089 139.124  0.00  0.00     0.021 C 
ATOM     12  C           0     111.811 162.097 140.549  0.00  0.00     0.132 C 
ATOM     13  N           0     112.684 161.466 141.300  0.00  0.00    -0.283 N 
ATOM     14  HN          0     113.216 160.643 141.019  1.00  0.00     0.188 HD
ATOM     15  N           0     112.766 162.052 142.456  0.00  0.00    -0.283 N 
ATOM     16  HN          0     113.426 161.808 143.194  1.00  0.00     0.188 HD
ATOM     17  C           0     111.874 162.999 142.528  0.00  0.00     0.132 C 
ATOM     18  N           0     111.013 162.802 141.454  0.00  0.00    -0.325 N 
ATOM     19  HN          0     110.096 163.095 141.343  0.00  0.00     0.169 HD
ATOM     20  C           0     111.696 164.160 143.407  0.00  0.00     0.021 C 
ATOM     21  C           0     112.220 164.179 144.691  0.00  0.00     0.016 C 
ATOM     22  C           0     111.967 165.247 145.543  0.00  0.00     0.002 C 
ATOM     23  C           0     111.155 166.269 145.148  0.00  0.00     0.012 C 
ATOM     24  C           0     110.590 166.262 143.862  0.00  0.00    -0.021 C 
ATOM     25  C           0     109.584 167.176 143.506  0.00  0.00     0.049 C 
ATOM     26  C           0     109.124 167.203 142.209  0.00  0.00     0.070 C 
ATOM     27  C           0     109.695 166.394 141.231  0.00  0.00     0.053 C 
ATOM     28  C           0     110.727 165.504 141.541  0.00  0.00     0.029 C 
ATOM     29  C           0     111.020 165.300 142.911  0.00  0.00     0.003 C 
ATOM     30  C           0     110.978 163.250 138.494  0.00  0.00     0.003 C 
ENDROOT
BRANCH   5  31
ATOM     31  O           0     109.105 166.421 136.548  0.00  0.00    -0.356 OA
ATOM     32  C           0     107.754 166.415 137.013  0.00  0.00     0.210 C 
ENDBRANCH   5  31
BRANCH  26  33
ATOM     33  O           0     108.116 168.049 141.872  0.00  0.00    -0.356 OA
ATOM     34  C           0     108.722 169.292 141.513  0.00  0.00     0.210 C 
ENDBRANCH  26  33
TORSDOF 2
ENDMDL
MODEL 5
REMARK VINA RESULT:      -7.8      2.892      5.479
REMARK  2 active torsions:
REMARK  status: ('A' for Active; 'I' for Inactive)
REMARK    1  A    between atoms: C_5  and  O_6 
REMARK    2  A    between atoms: C_28  and  O_29 
ROOT
ATOM      1  O           0     110.119 163.037 141.765  0.00  0.00    -0.287 OA
ATOM      2  C           0     110.343 164.177 141.427  0.00  0.00     0.194 C 
ATOM      3  C           0     110.381 165.186 142.485  0.00  0.00     0.029 C 
ATOM      4  C           0     109.668 166.369 142.271  0.00  0.00     0.053 C 
ATOM      5  C           0     109.659 167.401 143.202  0.00  0.00     0.070 C 
ATOM      6  C           0     110.301 167.252 144.408  0.00  0.00     0.049 C 
ATOM      7  C           0     110.963 166.046 144.697  0.00  0.00    -0.021 C 
ATOM      8  C           0     111.483 165.842 145.989  0.00  0.00     0.012 C 
ATOM      9  C           0     112.191 164.716 146.275  0.00  0.00     0.002 C 
ATOM     10  C           0     112.426 163.771 145.289  0.00  0.00     0.016 C 
ATOM     11  C           0     111.929 163.935 144.003  0.00  0.00     0.021 C 
ATOM     12  C           0     112.251 162.948 142.976  0.00  0.00     0.132 C 
ATOM     13  N           0     112.528 161.664 142.987  0.00  0.00    -0.283 N 
ATOM     14  HN          0     112.772 161.122 143.816  1.00  0.00     0.188 HD
ATOM     15  N           0     112.442 161.191 141.781  0.00  0.00    -0.283 N 
ATOM     16  HN          0     112.532 160.207 141.527  1.00  0.00     0.188 HD
ATOM     17  C           0     112.223 162.166 140.946  0.00  0.00     0.132 C 
ATOM     18  N           0     112.460 163.341 141.651  0.00  0.00    -0.325 N 
ATOM     19  HN          0     112.690 164.220 141.317  0.00  0.00     0.169 HD
ATOM     20  C           0     111.740 162.227 139.562  0.00  0.00     0.021 C 
ATOM     21  C           0     111.894 161.155 138.696  0.00  0.00     0.016 C 
ATOM     22  C           0     111.513 161.260 137.364  0.00  0.00     0.002 C 
ATOM     23  C           0     111.029 162.437 136.874  0.00  0.00     0.012 C 
ATOM     24  C           0     110.886 163.546 137.723  0.00  0.00    -0.021 C 
ATOM     25  C           0     110.604 164.823 137.208  0.00  0.00     0.049 C 
ATOM     26  C           0     110.375 165.867 138.076  0.00  0.00     0.070 C 
ATOM     27  C           0     110.342 165.657 139.452  0.00  0.00     0.053 C 
ATOM     28  C           0     110.576 164.392 139.997  0.00  0.00     0.029 C 
ATOM     29  C           0     111.057 163.387 139.124  0.00  0.00     0.003 C 
ATOM     30  C           0     111.094 165.041 143.703  0.00  0.00     0.003 C 
ENDROOT
BRANCH   5  31
ATOM     31  O           0     108.993 168.552 142.928  0.00  0.00    -0.356 OA
ATOM     32  C           0     108.641 168.507 141.544  0.00  0.00     0.210 C 
ENDBRANCH   5  31
BRANCH  26  33
ATOM     33  O           0     110.152 167.113 137.584  0.00  0.00    -0.356 OA
ATOM     34  C           0     108.795 167.442 137.889  0.00  0.00     0.210 C 
ENDBRANCH  26  33
TORSDOF 2
ENDMDL
MODEL 6
REMARK VINA RESULT:      -7.6      1.645      2.653
REMARK  2 active torsions:
REMARK  status: ('A' for Active; 'I' for Inactive)
REMARK    1  A    between atoms: C_5  and  O_6 
REMARK    2  A    between atoms: C_28  and  O_29 
ROOT
ATOM      1  O           0     111.424 166.494 140.068  0.00  0.00    -0.287 OA
ATOM      2  C           0     111.198 165.306 140.041  0.00  0.00     0.194 C 
ATOM      3  C           0     111.553 164.537 141.233  0.00  0.00     0.029 C 
ATOM      4  C           0     112.260 163.346 141.044  0.00  0.00     0.053 C 
ATOM      5  C           0     112.623 162.529 142.107  0.00  0.00     0.070 C 
ATOM      6  C           0     112.357 162.914 143.400  0.00  0.00     0.049 C 
ATOM      7  C           0     111.720 164.144 143.640  0.00  0.00    -0.021 C 
ATOM      8  C           0     111.592 164.603 144.963  0.00  0.00     0.012 C 
ATOM      9  C           0     110.915 165.753 145.230  0.00  0.00     0.002 C 
ATOM     10  C           0     110.327 166.471 144.201  0.00  0.00     0.016 C 
ATOM     11  C           0     110.432 166.052 142.881  0.00  0.00     0.021 C 
ATOM     12  C           0     109.746 166.800 141.832  0.00  0.00     0.132 C 
ATOM     13  N           0     109.387 168.054 141.679  0.00  0.00    -0.283 N 
ATOM     14  HN          0     109.357 168.753 142.422  1.00  0.00     0.188 HD
ATOM     15  N           0     109.075 168.269 140.438  0.00  0.00    -0.283 N 
ATOM     16  HN          0     108.838 169.177 140.038  1.00  0.00     0.188 HD
ATOM     17  C           0     109.111 167.145 139.779  0.00  0.00     0.132 C 
ATOM     18  N           0     109.185 166.139 140.736  0.00  0.00    -0.325 N 
ATOM     19  HN          0     108.935 165.206 140.663  0.00  0.00     0.169 HD
ATOM     20  C           0     109.167 166.807 138.352  0.00  0.00     0.021 C 
ATOM     21  C           0     108.681 167.674 137.386  0.00  0.00     0.016 C 
ATOM     22  C           0     108.658 167.302 136.048  0.00  0.00     0.002 C 
ATOM     23  C           0     109.064 166.056 135.669  0.00  0.00     0.012 C 
ATOM     24  C           0     109.537 165.148 136.631  0.00  0.00    -0.021 C 
ATOM     25  C           0     109.752 163.797 136.310  0.00  0.00     0.049 C 
ATOM     26  C           0     110.307 162.959 137.251  0.00  0.00     0.070 C 
ATOM     27  C           0     110.729 163.449 138.484  0.00  0.00     0.053 C 
ATOM     28  C           0     110.570 164.796 138.820  0.00  0.00     0.029 C 
ATOM     29  C           0     109.777 165.592 137.959  0.00  0.00     0.003 C 
ATOM     30  C           0     111.223 164.920 142.559  0.00  0.00     0.003 C 
ENDROOT
BRANCH   5  31
ATOM     31  O           0     113.266 161.356 141.871  0.00  0.00    -0.356 OA
ATOM     32  C           0     114.482 161.394 142.619  0.00  0.00     0.210 C 
ENDBRANCH   5  31
BRANCH  26  33
ATOM     33  O           0     110.470 161.642 136.964  0.00  0.00    -0.356 OA
ATOM     34  C           0     111.509 161.158 137.816  0.00  0.00     0.210 C 
ENDBRANCH  26  33
TORSDOF 2
ENDMDL
MODEL 7
REMARK VINA RESULT:      -7.6      1.458      5.925
REMARK  2 active torsions:
REMARK  status: ('A' for Active; 'I' for Inactive)
REMARK    1  A    between atoms: C_5  and  O_6 
REMARK    2  A    between atoms: C_28  and  O_29 
ROOT
ATOM      1  O           0     108.251 165.372 137.009  0.00  0.00    -0.287 OA
ATOM      2  C           0     109.363 164.911 136.905  0.00  0.00     0.194 C 
ATOM      3  C           0     109.775 164.465 135.574  0.00  0.00     0.029 C 
ATOM      4  C           0     110.375 163.207 135.473  0.00  0.00     0.053 C 
ATOM      5  C           0     110.824 162.701 134.260  0.00  0.00     0.070 C 
ATOM      6  C           0     110.619 163.404 133.097  0.00  0.00     0.049 C 
ATOM      7  C           0     109.946 164.637 133.142  0.00  0.00    -0.021 C 
ATOM      8  C           0     109.603 165.275 131.936  0.00  0.00     0.012 C 
ATOM      9  C           0     109.017 166.503 131.950  0.00  0.00     0.002 C 
ATOM     10  C           0     108.775 167.147 133.154  0.00  0.00     0.016 C 
ATOM     11  C           0     109.098 166.550 134.365  0.00  0.00     0.021 C 
ATOM     12  C           0     108.885 167.285 135.608  0.00  0.00     0.132 C 
ATOM     13  N           0     108.047 168.221 135.993  0.00  0.00    -0.283 N 
ATOM     14  HN          0     107.464 168.781 135.372  1.00  0.00     0.188 HD
ATOM     15  N           0     108.074 168.321 137.287  0.00  0.00    -0.283 N 
ATOM     16  HN          0     107.461 168.917 137.845  1.00  0.00     0.188 HD
ATOM     17  C           0     109.004 167.544 137.766  0.00  0.00     0.132 C 
ATOM     18  N           0     109.774 167.148 136.678  0.00  0.00    -0.325 N 
ATOM     19  HN          0     110.690 166.834 136.659  0.00  0.00     0.169 HD
ATOM     20  C           0     109.290 167.008 139.101  0.00  0.00     0.021 C 
ATOM     21  C           0     108.865 167.662 140.247  0.00  0.00     0.016 C 
ATOM     22  C           0     109.221 167.192 141.505  0.00  0.00     0.002 C 
ATOM     23  C           0     110.039 166.108 141.631  0.00  0.00     0.012 C 
ATOM     24  C           0     110.505 165.442 140.486  0.00  0.00    -0.021 C 
ATOM     25  C           0     111.517 164.470 140.573  0.00  0.00     0.049 C 
ATOM     26  C           0     111.879 163.769 139.445  0.00  0.00     0.070 C 
ATOM     27  C           0     111.206 163.956 138.241  0.00  0.00     0.053 C 
ATOM     28  C           0     110.168 164.883 138.129  0.00  0.00     0.029 C 
ATOM     29  C           0     109.970 165.772 139.213  0.00  0.00     0.003 C 
ATOM     30  C           0     109.606 165.226 134.389  0.00  0.00     0.003 C 
ENDROOT
BRANCH   5  31
ATOM     31  O           0     111.447 161.495 134.220  0.00  0.00    -0.356 OA
ATOM     32  C           0     111.672 161.100 135.575  0.00  0.00     0.210 C 
ENDBRANCH   5  31
BRANCH  26  33
ATOM     33  O           0     112.891 162.865 139.513  0.00  0.00    -0.356 OA
ATOM     34  C           0     112.315 161.581 139.262  0.00  0.00     0.210 C 
ENDBRANCH  26  33
TORSDOF 2
ENDMDL
MODEL 8
REMARK VINA RESULT:      -7.6      7.440      9.421
REMARK  2 active torsions:
REMARK  status: ('A' for Active; 'I' for Inactive)
REMARK    1  A    between atoms: C_5  and  O_6 
REMARK    2  A    between atoms: C_28  and  O_29 
ROOT
ATOM      1  O           0     113.059 174.693 139.430  0.00  0.00    -0.287 OA
ATOM      2  C           0     112.105 173.952 139.381  0.00  0.00     0.194 C 
ATOM      3  C           0     111.662 173.354 140.640  0.00  0.00     0.029 C 
ATOM      4  C           0     111.409 171.979 140.646  0.00  0.00     0.053 C 
ATOM      5  C           0     110.962 171.319 141.783  0.00  0.00     0.070 C 
ATOM      6  C           0     110.824 171.998 142.971  0.00  0.00     0.049 C 
ATOM      7  C           0     111.146 173.365 143.028  0.00  0.00    -0.021 C 
ATOM      8  C           0     111.153 174.016 144.276  0.00  0.00     0.012 C 
ATOM      9  C           0     111.389 175.354 144.353  0.00  0.00     0.002 C 
ATOM     10  C           0     111.601 176.092 143.199  0.00  0.00     0.016 C 
ATOM     11  C           0     111.603 175.487 141.950  0.00  0.00     0.021 C 
ATOM     12  C           0     111.769 176.308 140.753  0.00  0.00     0.132 C 
ATOM     13  N           0     112.370 177.446 140.493  0.00  0.00    -0.283 N 
ATOM     14  HN          0     112.699 178.111 141.193  1.00  0.00     0.188 HD
ATOM     15  N           0     112.480 177.595 139.208  0.00  0.00    -0.283 N 
ATOM     16  HN          0     112.977 178.355 138.744  1.00  0.00     0.188 HD
ATOM     17  C           0     111.858 176.624 138.602  0.00  0.00     0.132 C 
ATOM     18  N           0     111.089 175.991 139.573  0.00  0.00    -0.325 N 
ATOM     19  HN          0     110.295 175.448 139.467  0.00  0.00     0.169 HD
ATOM     20  C           0     111.894 176.093 137.235  0.00  0.00     0.021 C 
ATOM     21  C           0     112.272 176.886 136.163  0.00  0.00     0.016 C 
ATOM     22  C           0     112.215 176.396 134.864  0.00  0.00     0.002 C 
ATOM     23  C           0     111.736 175.143 134.618  0.00  0.00     0.012 C 
ATOM     24  C           0     111.323 174.327 135.684  0.00  0.00    -0.021 C 
ATOM     25  C           0     110.625 173.129 135.453  0.00  0.00     0.049 C 
ATOM     26  C           0     110.323 172.308 136.516  0.00  0.00     0.070 C 
ATOM     27  C           0     110.765 172.609 137.800  0.00  0.00     0.053 C 
ATOM     28  C           0     111.497 173.770 138.060  0.00  0.00     0.029 C 
ATOM     29  C           0     111.587 174.728 137.021  0.00  0.00     0.003 C 
ATOM     30  C           0     111.472 174.079 141.845  0.00  0.00     0.003 C 
ENDROOT
BRANCH   5  31
ATOM     31  O           0     110.682 169.991 141.728  0.00  0.00    -0.356 OA
ATOM     32  C           0     109.443 169.859 141.028  0.00  0.00     0.210 C 
ENDBRANCH   5  31
BRANCH  26  33
ATOM     33  O           0     109.604 171.174 136.304  0.00  0.00    -0.356 OA
ATOM     34  C           0     110.097 170.196 137.222  0.00  0.00     0.210 C 
ENDBRANCH  26  33
TORSDOF 2
ENDMDL
MODEL 9
REMARK VINA RESULT:      -7.5     25.022     28.172
REMARK  2 active torsions:
REMARK  status: ('A' for Active; 'I' for Inactive)
REMARK    1  A    between atoms: C_5  and  O_6 
REMARK    2  A    between atoms: C_28  and  O_29 
ROOT
ATOM      1  O           0     134.753 158.968 152.497  0.00  0.00    -0.287 OA
ATOM      2  C           0     134.112 159.486 151.612  0.00  0.00     0.194 C 
ATOM      3  C           0     134.739 160.601 150.903  0.00  0.00     0.029 C 
ATOM      4  C           0     133.973 161.754 150.710  0.00  0.00     0.053 C 
ATOM      5  C           0     134.466 162.859 150.028  0.00  0.00     0.070 C 
ATOM      6  C           0     135.766 162.875 149.582  0.00  0.00     0.049 C 
ATOM      7  C           0     136.597 161.768 149.827  0.00  0.00    -0.021 C 
ATOM      8  C           0     137.965 161.853 149.508  0.00  0.00     0.012 C 
ATOM      9  C           0     138.777 160.773 149.666  0.00  0.00     0.002 C 
ATOM     10  C           0     138.258 159.571 150.121  0.00  0.00     0.016 C 
ATOM     11  C           0     136.913 159.447 150.448  0.00  0.00     0.021 C 
ATOM     12  C           0     136.392 158.148 150.864  0.00  0.00     0.132 C 
ATOM     13  N           0     136.904 157.099 151.465  0.00  0.00    -0.283 N 
ATOM     14  HN          0     137.901 156.921 151.590  1.00  0.00     0.188 HD
ATOM     15  N           0     135.948 156.324 151.876  0.00  0.00    -0.283 N 
ATOM     16  HN          0     136.073 155.483 152.440  1.00  0.00     0.188 HD
ATOM     17  C           0     134.803 156.784 151.456  0.00  0.00     0.132 C 
ATOM     18  N           0     135.102 157.750 150.502  0.00  0.00    -0.325 N 
ATOM     19  HN          0     134.552 158.085 149.778  0.00  0.00     0.169 HD
ATOM     20  C           0     133.409 156.540 151.842  0.00  0.00     0.021 C 
ATOM     21  C           0     133.023 155.348 152.435  0.00  0.00     0.016 C 
ATOM     22  C           0     131.685 155.095 152.712  0.00  0.00     0.002 C 
ATOM     23  C           0     130.724 155.994 152.356  0.00  0.00     0.012 C 
ATOM     24  C           0     131.084 157.198 151.730  0.00  0.00    -0.021 C 
ATOM     25  C           0     130.114 158.037 151.156  0.00  0.00     0.049 C 
ATOM     26  C           0     130.495 159.255 150.638  0.00  0.00     0.070 C 
ATOM     27  C           0     131.810 159.697 150.746  0.00  0.00     0.053 C 
ATOM     28  C           0     132.792 158.908 151.348  0.00  0.00     0.029 C 
ATOM     29  C           0     132.454 157.566 151.648  0.00  0.00     0.003 C 
ATOM     30  C           0     136.066 160.583 150.400  0.00  0.00     0.003 C 
ENDROOT
BRANCH   5  31
ATOM     31  O           0     133.667 163.938 149.821  0.00  0.00    -0.356 OA
ATOM     32  C           0     132.862 164.086 150.992  0.00  0.00     0.210 C 
ENDBRANCH   5  31
BRANCH  26  33
ATOM     33  O           0     129.569 160.047 150.037  0.00  0.00    -0.356 OA
ATOM     34  C           0     128.395 160.001 150.849  0.00  0.00     0.210 C 
ENDBRANCH  26  33
TORSDOF 2
ENDMDL
