MODEL 1
REMARK VINA RESULT:      -7.9      0.000      0.000
REMARK  3 active torsions:
REMARK  status: ('A' for Active; 'I' for Inactive)
REMARK    1  A    between atoms: C_9  and  O_10 
REMARK    2  A    between atoms: O_10  and  C_11 
REMARK    3  A    between atoms: C_25  and  O_26 
ROOT
ATOM      1  O           0     110.790 176.088 140.018  0.00  0.00    -0.287 OA
ATOM      2  C           0     110.957 174.912 140.245  0.00  0.00     0.194 C 
ATOM      3  C           0     110.926 174.007 139.097  0.00  0.00     0.027 C 
ATOM      4  C           0     110.152 172.848 139.207  0.00  0.00     0.016 C 
ATOM      5  C           0     110.070 171.919 138.187  0.00  0.00     0.002 C 
ATOM      6  C           0     110.702 172.135 137.002  0.00  0.00     0.012 C 
ATOM      7  C           0     111.434 173.321 136.809  0.00  0.00    -0.021 C 
ATOM      8  C           0     111.954 173.603 135.533  0.00  0.00     0.049 C 
ATOM      9  C           0     112.723 174.726 135.334  0.00  0.00     0.070 C 
ATOM     10  C           0     113.018 175.566 136.403  0.00  0.00     0.053 C 
ATOM     11  C           0     112.523 175.308 137.675  0.00  0.00     0.024 C 
ATOM     12  C           0     112.908 176.179 138.783  0.00  0.00     0.133 C 
ATOM     13  N           0     113.251 177.442 138.886  0.00  0.00    -0.283 N 
ATOM     14  HN          0     113.513 178.047 138.106  1.00  0.00     0.188 HD
ATOM     15  N           0     113.206 177.804 140.131  0.00  0.00    -0.283 N 
ATOM     16  HN          0     113.350 178.754 140.474  1.00  0.00     0.188 HD
ATOM     17  C           0     112.948 176.767 140.878  0.00  0.00     0.133 C 
ATOM     18  N           0     113.113 175.653 140.063  0.00  0.00    -0.325 N 
ATOM     19  HN          0     113.299 174.736 140.311  0.00  0.00     0.169 HD
ATOM     20  C           0     112.481 176.603 142.260  0.00  0.00     0.024 C 
ATOM     21  C           0     112.706 177.578 143.216  0.00  0.00     0.053 C 
ATOM     22  C           0     112.334 177.369 144.544  0.00  0.00     0.070 C 
ATOM     23  C           0     111.793 176.162 144.932  0.00  0.00     0.049 C 
ATOM     24  C           0     111.584 175.152 143.980  0.00  0.00    -0.021 C 
ATOM     25  C           0     111.248 173.844 144.371  0.00  0.00     0.012 C 
ATOM     26  C           0     110.942 172.918 143.420  0.00  0.00     0.002 C 
ATOM     27  C           0     110.900 173.256 142.076  0.00  0.00     0.016 C 
ATOM     28  C           0     111.197 174.553 141.645  0.00  0.00     0.027 C 
ATOM     29  C           0     111.744 175.442 142.599  0.00  0.00     0.003 C 
ATOM     30  C           0     111.633 174.225 137.886  0.00  0.00     0.003 C 
ENDROOT
BRANCH   9  31
ATOM     31  O           0     113.204 175.009 134.096  0.00  0.00    -0.351 OA
BRANCH  31  32
ATOM     32  C           0     112.652 176.271 133.717  0.00  0.00     0.171 C 
ATOM     33  C           0     111.591 176.059 132.636  0.00  0.00     0.034 C 
ENDBRANCH  31  32
ENDBRANCH   9  31
BRANCH  22  34
ATOM     34  O           0     112.524 178.351 145.462  0.00  0.00    -0.356 OA
ATOM     35  C           0     111.239 178.666 146.001  0.00  0.00     0.210 C 
ENDBRANCH  22  34
TORSDOF 3
ENDMDL
MODEL 2
REMARK VINA RESULT:      -7.7      1.116      7.297
REMARK  3 active torsions:
REMARK  status: ('A' for Active; 'I' for Inactive)
REMARK    1  A    between atoms: C_9  and  O_10 
REMARK    2  A    between atoms: O_10  and  C_11 
REMARK    3  A    between atoms: C_25  and  O_26 
ROOT
ATOM      1  O           0     113.213 174.888 140.082  0.00  0.00    -0.287 OA
ATOM      2  C           0     112.185 174.252 140.138  0.00  0.00     0.194 C 
ATOM      3  C           0     111.714 173.872 141.469  0.00  0.00     0.027 C 
ATOM      4  C           0     111.321 172.543 141.661  0.00  0.00     0.016 C 
ATOM      5  C           0     110.843 172.087 142.875  0.00  0.00     0.002 C 
ATOM      6  C           0     110.797 172.912 143.955  0.00  0.00     0.012 C 
ATOM      7  C           0     111.250 174.239 143.838  0.00  0.00    -0.021 C 
ATOM      8  C           0     111.340 175.035 144.994  0.00  0.00     0.049 C 
ATOM      9  C           0     111.724 176.353 144.897  0.00  0.00     0.070 C 
ATOM     10  C           0     111.991 176.909 143.650  0.00  0.00     0.053 C 
ATOM     11  C           0     111.904 176.148 142.491  0.00  0.00     0.024 C 
ATOM     12  C           0     112.130 176.787 141.197  0.00  0.00     0.133 C 
ATOM     13  N           0     112.842 177.810 140.786  0.00  0.00    -0.283 N 
ATOM     14  HN          0     113.257 178.520 141.391  1.00  0.00     0.188 HD
ATOM     15  N           0     112.938 177.781 139.492  0.00  0.00    -0.283 N 
ATOM     16  HN          0     113.502 178.417 138.929  1.00  0.00     0.188 HD
ATOM     17  C           0     112.200 176.814 139.022  0.00  0.00     0.133 C 
ATOM     18  N           0     111.393 176.396 140.073  0.00  0.00    -0.325 N 
ATOM     19  HN          0     110.544 175.932 140.046  0.00  0.00     0.169 HD
ATOM     20  C           0     112.149 176.112 137.733  0.00  0.00     0.024 C 
ATOM     21  C           0     112.579 176.719 136.566  0.00  0.00     0.053 C 
ATOM     22  C           0     112.442 176.072 135.338  0.00  0.00     0.070 C 
ATOM     23  C           0     111.818 174.845 135.265  0.00  0.00     0.049 C 
ATOM     24  C           0     111.349 174.229 136.436  0.00  0.00    -0.021 C 
ATOM     25  C           0     110.518 173.097 136.378  0.00  0.00     0.012 C 
ATOM     26  C           0     110.174 172.458 137.531  0.00  0.00     0.002 C 
ATOM     27  C           0     110.676 172.868 138.756  0.00  0.00     0.016 C 
ATOM     28  C           0     111.531 173.971 138.857  0.00  0.00     0.027 C 
ATOM     29  C           0     111.693 174.772 137.702  0.00  0.00     0.003 C 
ATOM     30  C           0     111.625 174.761 142.571  0.00  0.00     0.003 C 
ENDROOT
BRANCH   9  31
ATOM     31  O           0     111.833 177.113 146.016  0.00  0.00    -0.351 OA
BRANCH  31  32
ATOM     32  C           0     111.080 178.305 145.781  0.00  0.00     0.171 C 
ATOM     33  C           0     109.685 178.155 146.391  0.00  0.00     0.034 C 
ENDBRANCH  31  32
ENDBRANCH   9  31
BRANCH  22  34
ATOM     34  O           0     112.907 176.662 134.207  0.00  0.00    -0.356 OA
ATOM     35  C           0     112.279 176.002 133.108  0.00  0.00     0.210 C 
ENDBRANCH  22  34
TORSDOF 3
ENDMDL
MODEL 3
REMARK VINA RESULT:      -7.5      8.683     12.606
REMARK  3 active torsions:
REMARK  status: ('A' for Active; 'I' for Inactive)
REMARK    1  A    between atoms: C_9  and  O_10 
REMARK    2  A    between atoms: O_10  and  C_11 
REMARK    3  A    between atoms: C_25  and  O_26 
ROOT
ATOM      1  O           0     111.878 165.872 140.589  0.00  0.00    -0.287 OA
ATOM      2  C           0     111.536 164.755 140.273  0.00  0.00     0.194 C 
ATOM      3  C           0     111.939 163.666 141.160  0.00  0.00     0.027 C 
ATOM      4  C           0     112.507 162.530 140.573  0.00  0.00     0.016 C 
ATOM      5  C           0     112.904 161.437 141.321  0.00  0.00     0.002 C 
ATOM      6  C           0     112.809 161.456 142.677  0.00  0.00     0.012 C 
ATOM      7  C           0     112.314 162.602 143.326  0.00  0.00    -0.021 C 
ATOM      8  C           0     112.363 162.668 144.730  0.00  0.00     0.049 C 
ATOM      9  C           0     111.832 163.752 145.389  0.00  0.00     0.070 C 
ATOM     10  C           0     111.213 164.769 144.669  0.00  0.00     0.053 C 
ATOM     11  C           0     111.145 164.727 143.282  0.00  0.00     0.024 C 
ATOM     12  C           0     110.431 165.783 142.569  0.00  0.00     0.133 C 
ATOM     13  N           0     110.183 167.051 142.805  0.00  0.00    -0.283 N 
ATOM     14  HN          0     110.300 167.516 143.706  1.00  0.00     0.188 HD
ATOM     15  N           0     109.766 167.622 141.717  0.00  0.00    -0.283 N 
ATOM     16  HN          0     109.579 168.619 141.610  1.00  0.00     0.188 HD
ATOM     17  C           0     109.621 166.725 140.782  0.00  0.00     0.133 C 
ATOM     18  N           0     109.696 165.490 141.414  0.00  0.00    -0.325 N 
ATOM     19  HN          0     109.351 164.633 141.127  0.00  0.00     0.169 HD
ATOM     20  C           0     109.492 166.795 139.321  0.00  0.00     0.024 C 
ATOM     21  C           0     108.992 167.925 138.696  0.00  0.00     0.053 C 
ATOM     22  C           0     108.795 167.942 137.315  0.00  0.00     0.070 C 
ATOM     23  C           0     109.036 166.811 136.564  0.00  0.00     0.049 C 
ATOM     24  C           0     109.515 165.649 137.187  0.00  0.00    -0.021 C 
ATOM     25  C           0     109.559 164.423 136.500  0.00  0.00     0.012 C 
ATOM     26  C           0     110.134 163.341 137.096  0.00  0.00     0.002 C 
ATOM     27  C           0     110.730 163.441 138.344  0.00  0.00     0.016 C 
ATOM     28  C           0     110.736 164.648 139.050  0.00  0.00     0.027 C 
ATOM     29  C           0     109.936 165.699 138.542  0.00  0.00     0.003 C 
ATOM     30  C           0     111.786 163.683 142.571  0.00  0.00     0.003 C 
ENDROOT
BRANCH   9  31
ATOM     31  O           0     111.901 163.825 146.743  0.00  0.00    -0.351 OA
BRANCH  31  32
ATOM     32  C           0     110.701 164.463 147.185  0.00  0.00     0.171 C 
ATOM     33  C           0     109.889 163.486 148.037  0.00  0.00     0.034 C 
ENDBRANCH  31  32
ENDBRANCH   9  31
BRANCH  22  34
ATOM     34  O           0     108.343 169.071 136.712  0.00  0.00    -0.356 OA
ATOM     35  C           0     109.042 169.184 135.471  0.00  0.00     0.210 C 
ENDBRANCH  22  34
TORSDOF 3
ENDMDL
MODEL 4
REMARK VINA RESULT:      -7.5      3.978      7.576
REMARK  3 active torsions:
REMARK  status: ('A' for Active; 'I' for Inactive)
REMARK    1  A    between atoms: C_9  and  O_10 
REMARK    2  A    between atoms: O_10  and  C_11 
REMARK    3  A    between atoms: C_25  and  O_26 
ROOT
ATOM      1  O           0     111.596 171.228 138.219  0.00  0.00    -0.287 OA
ATOM      2  C           0     110.708 171.123 137.405  0.00  0.00     0.194 C 
ATOM      3  C           0     110.036 169.827 137.323  0.00  0.00     0.027 C 
ATOM      4  C           0     109.849 169.274 136.052  0.00  0.00     0.016 C 
ATOM      5  C           0     109.209 168.064 135.865  0.00  0.00     0.002 C 
ATOM      6  C           0     108.788 167.331 136.930  0.00  0.00     0.012 C 
ATOM      7  C           0     109.017 167.804 138.235  0.00  0.00    -0.021 C 
ATOM      8  C           0     108.715 166.971 139.327  0.00  0.00     0.049 C 
ATOM      9  C           0     108.874 167.433 140.613  0.00  0.00     0.070 C 
ATOM     10  C           0     109.301 168.739 140.835  0.00  0.00     0.053 C 
ATOM     11  C           0     109.600 169.586 139.775  0.00  0.00     0.024 C 
ATOM     12  C           0     109.984 170.968 140.050  0.00  0.00     0.133 C 
ATOM     13  N           0     110.577 171.578 141.050  0.00  0.00    -0.283 N 
ATOM     14  HN          0     110.722 171.183 141.979  1.00  0.00     0.188 HD
ATOM     15  N           0     110.953 172.763 140.674  0.00  0.00    -0.283 N 
ATOM     16  HN          0     111.505 173.411 141.235  1.00  0.00     0.188 HD
ATOM     17  C           0     110.514 172.997 139.468  0.00  0.00     0.133 C 
ATOM     18  N           0     109.586 172.000 139.194  0.00  0.00    -0.325 N 
ATOM     19  HN          0     108.857 172.002 138.556  0.00  0.00     0.169 HD
ATOM     20  C           0     110.865 173.979 138.435  0.00  0.00     0.024 C 
ATOM     21  C           0     111.423 175.202 138.764  0.00  0.00     0.053 C 
ATOM     22  C           0     111.669 176.158 137.779  0.00  0.00     0.070 C 
ATOM     23  C           0     111.299 175.920 136.472  0.00  0.00     0.049 C 
ATOM     24  C           0     110.705 174.696 136.127  0.00  0.00    -0.021 C 
ATOM     25  C           0     110.116 174.507 134.864  0.00  0.00     0.012 C 
ATOM     26  C           0     109.650 173.273 134.521  0.00  0.00     0.002 C 
ATOM     27  C           0     109.798 172.188 135.370  0.00  0.00     0.016 C 
ATOM     28  C           0     110.404 172.325 136.623  0.00  0.00     0.027 C 
ATOM     29  C           0     110.667 173.640 137.074  0.00  0.00     0.003 C 
ATOM     30  C           0     109.558 169.101 138.444  0.00  0.00     0.003 C 
ENDROOT
BRANCH   9  31
ATOM     31  O           0     108.605 166.619 141.666  0.00  0.00    -0.351 OA
BRANCH  31  32
ATOM     32  C           0     109.864 166.190 142.189  0.00  0.00     0.171 C 
ATOM     33  C           0     110.135 164.751 141.749  0.00  0.00     0.034 C 
ENDBRANCH  31  32
ENDBRANCH   9  31
BRANCH  22  34
ATOM     34  O           0     112.255 177.337 138.112  0.00  0.00    -0.356 OA
ATOM     35  C           0     113.254 177.038 139.089  0.00  0.00     0.210 C 
ENDBRANCH  22  34
TORSDOF 3
ENDMDL
MODEL 5
REMARK VINA RESULT:      -7.4      9.582     11.376
REMARK  3 active torsions:
REMARK  status: ('A' for Active; 'I' for Inactive)
REMARK    1  A    between atoms: C_9  and  O_10 
REMARK    2  A    between atoms: O_10  and  C_11 
REMARK    3  A    between atoms: C_25  and  O_26 
ROOT
ATOM      1  O           0     112.051 165.284 140.185  0.00  0.00    -0.287 OA
ATOM      2  C           0     110.914 165.576 139.896  0.00  0.00     0.194 C 
ATOM      3  C           0     110.478 165.269 138.534  0.00  0.00     0.027 C 
ATOM      4  C           0     109.809 166.274 137.827  0.00  0.00     0.016 C 
ATOM      5  C           0     109.340 166.079 136.542  0.00  0.00     0.002 C 
ATOM      6  C           0     109.571 164.907 135.891  0.00  0.00     0.012 C 
ATOM      7  C           0     110.304 163.889 136.527  0.00  0.00    -0.021 C 
ATOM      8  C           0     110.665 162.746 135.792  0.00  0.00     0.049 C 
ATOM      9  C           0     111.331 161.711 136.409  0.00  0.00     0.070 C 
ATOM     10  C           0     111.615 161.779 137.769  0.00  0.00     0.053 C 
ATOM     11  C           0     111.263 162.893 138.521  0.00  0.00     0.024 C 
ATOM     12  C           0     111.524 162.898 139.958  0.00  0.00     0.133 C 
ATOM     13  N           0     112.415 162.327 140.735  0.00  0.00    -0.283 N 
ATOM     14  HN          0     113.028 161.559 140.463  1.00  0.00     0.188 HD
ATOM     15  N           0     112.396 162.892 141.904  0.00  0.00    -0.283 N 
ATOM     16  HN          0     113.044 162.689 142.666  1.00  0.00     0.188 HD
ATOM     17  C           0     111.422 163.757 141.955  0.00  0.00     0.133 C 
ATOM     18  N           0     110.629 163.513 140.840  0.00  0.00    -0.325 N 
ATOM     19  HN          0     109.697 163.730 140.693  0.00  0.00     0.169 HD
ATOM     20  C           0     111.108 164.879 142.848  0.00  0.00     0.024 C 
ATOM     21  C           0     111.570 164.910 144.153  0.00  0.00     0.053 C 
ATOM     22  C           0     111.189 165.939 145.015  0.00  0.00     0.070 C 
ATOM     23  C           0     110.298 166.903 144.596  0.00  0.00     0.049 C 
ATOM     24  C           0     109.798 166.869 143.285  0.00  0.00    -0.021 C 
ATOM     25  C           0     108.728 167.693 142.895  0.00  0.00     0.012 C 
ATOM     26  C           0     108.343 167.717 141.588  0.00  0.00     0.002 C 
ATOM     27  C           0     109.023 166.988 140.626  0.00  0.00     0.016 C 
ATOM     28  C           0     110.112 166.178 140.964  0.00  0.00     0.027 C 
ATOM     29  C           0     110.357 165.967 142.342  0.00  0.00     0.003 C 
ATOM     30  C           0     110.684 164.022 137.889  0.00  0.00     0.003 C 
ENDROOT
BRANCH   9  31
ATOM     31  O           0     111.700 160.619 135.692  0.00  0.00    -0.351 OA
BRANCH  31  32
ATOM     32  C           0     111.664 160.998 134.314  0.00  0.00     0.171 C 
ATOM     33  C           0     113.003 160.660 133.658  0.00  0.00     0.034 C 
ENDBRANCH  31  32
ENDBRANCH   9  31
BRANCH  22  34
ATOM     34  O           0     111.684 165.979 146.279  0.00  0.00    -0.356 OA
ATOM     35  C           0     111.073 164.904 146.994  0.00  0.00     0.210 C 
ENDBRANCH  22  34
TORSDOF 3
ENDMDL
MODEL 6
REMARK VINA RESULT:      -7.4      8.184     11.952
REMARK  3 active torsions:
REMARK  status: ('A' for Active; 'I' for Inactive)
REMARK    1  A    between atoms: C_9  and  O_10 
REMARK    2  A    between atoms: O_10  and  C_11 
REMARK    3  A    between atoms: C_25  and  O_26 
ROOT
ATOM      1  O           0     111.132 166.982 138.986  0.00  0.00    -0.287 OA
ATOM      2  C           0     110.837 165.840 139.259  0.00  0.00     0.194 C 
ATOM      3  C           0     110.928 165.453 140.665  0.00  0.00     0.027 C 
ATOM      4  C           0     111.581 164.252 140.964  0.00  0.00     0.016 C 
ATOM      5  C           0     111.704 163.786 142.260  0.00  0.00     0.002 C 
ATOM      6  C           0     111.242 164.521 143.306  0.00  0.00     0.012 C 
ATOM      7  C           0     110.643 165.772 143.069  0.00  0.00    -0.021 C 
ATOM      8  C           0     110.307 166.587 144.165  0.00  0.00     0.049 C 
ATOM      9  C           0     109.668 167.788 143.961  0.00  0.00     0.070 C 
ATOM     10  C           0     109.320 168.181 142.672  0.00  0.00     0.053 C 
ATOM     11  C           0     109.633 167.392 141.573  0.00  0.00     0.024 C 
ATOM     12  C           0     109.194 167.810 140.243  0.00  0.00     0.133 C 
ATOM     13  N           0     108.952 168.969 139.675  0.00  0.00    -0.283 N 
ATOM     14  HN          0     108.840 169.855 140.168  1.00  0.00     0.188 HD
ATOM     15  N           0     108.878 168.813 138.388  0.00  0.00    -0.283 N 
ATOM     16  HN          0     108.776 169.568 137.709  1.00  0.00     0.188 HD
ATOM     17  C           0     108.952 167.545 138.097  0.00  0.00     0.133 C 
ATOM     18  N           0     108.792 166.862 139.297  0.00  0.00    -0.325 N 
ATOM     19  HN          0     108.498 165.952 139.448  0.00  0.00     0.169 HD
ATOM     20  C           0     109.234 166.802 136.862  0.00  0.00     0.024 C 
ATOM     21  C           0     108.979 167.354 135.618  0.00  0.00     0.053 C 
ATOM     22  C           0     109.169 166.604 134.458  0.00  0.00     0.070 C 
ATOM     23  C           0     109.553 165.282 134.539  0.00  0.00     0.049 C 
ATOM     24  C           0     109.787 164.700 135.795  0.00  0.00    -0.021 C 
ATOM     25  C           0     109.959 163.311 135.930  0.00  0.00     0.012 C 
ATOM     26  C           0     110.296 162.792 137.144  0.00  0.00     0.002 C 
ATOM     27  C           0     110.530 163.614 138.235  0.00  0.00     0.016 C 
ATOM     28  C           0     110.400 165.003 138.139  0.00  0.00     0.027 C 
ATOM     29  C           0     109.821 165.518 136.955  0.00  0.00     0.003 C 
ATOM     30  C           0     110.395 166.208 141.741  0.00  0.00     0.003 C 
ENDROOT
BRANCH   9  31
ATOM     31  O           0     109.366 168.585 145.018  0.00  0.00    -0.351 OA
BRANCH  31  32
ATOM     32  C           0     109.649 167.830 146.198  0.00  0.00     0.171 C 
ATOM     33  C           0     108.454 167.904 147.149  0.00  0.00     0.034 C 
ENDBRANCH  31  32
ENDBRANCH   9  31
BRANCH  22  34
ATOM     34  O           0     108.956 167.172 133.243  0.00  0.00    -0.356 OA
ATOM     35  C           0     108.028 166.333 132.553  0.00  0.00     0.210 C 
ENDBRANCH  22  34
TORSDOF 3
ENDMDL
MODEL 7
REMARK VINA RESULT:      -7.1      9.895     13.999
REMARK  3 active torsions:
REMARK  status: ('A' for Active; 'I' for Inactive)
REMARK    1  A    between atoms: C_9  and  O_10 
REMARK    2  A    between atoms: O_10  and  C_11 
REMARK    3  A    between atoms: C_25  and  O_26 
ROOT
ATOM      1  O           0     110.047 163.207 141.860  0.00  0.00    -0.287 OA
ATOM      2  C           0     110.285 164.352 141.550  0.00  0.00     0.194 C 
ATOM      3  C           0     110.296 165.340 142.627  0.00  0.00     0.027 C 
ATOM      4  C           0     109.591 166.531 142.420  0.00  0.00     0.016 C 
ATOM      5  C           0     109.554 167.536 143.368  0.00  0.00     0.002 C 
ATOM      6  C           0     110.159 167.373 144.574  0.00  0.00     0.012 C 
ATOM      7  C           0     110.819 166.165 144.865  0.00  0.00    -0.021 C 
ATOM      8  C           0     111.309 165.949 146.166  0.00  0.00     0.049 C 
ATOM      9  C           0     112.009 164.802 146.459  0.00  0.00     0.070 C 
ATOM     10  C           0     112.264 163.869 145.459  0.00  0.00     0.053 C 
ATOM     11  C           0     111.799 164.059 144.164  0.00  0.00     0.024 C 
ATOM     12  C           0     112.143 163.087 143.129  0.00  0.00     0.133 C 
ATOM     13  N           0     112.413 161.802 143.125  0.00  0.00    -0.283 N 
ATOM     14  HN          0     112.631 161.243 143.951  1.00  0.00     0.188 HD
ATOM     15  N           0     112.359 161.351 141.909  0.00  0.00    -0.283 N 
ATOM     16  HN          0     112.451 160.372 141.640  1.00  0.00     0.188 HD
ATOM     17  C           0     112.170 162.343 141.084  0.00  0.00     0.133 C 
ATOM     18  N           0     112.391 163.503 141.817  0.00  0.00    -0.325 N 
ATOM     19  HN          0     112.634 164.387 141.505  0.00  0.00     0.169 HD
ATOM     20  C           0     111.727 162.431 139.687  0.00  0.00     0.024 C 
ATOM     21  C           0     111.905 161.375 138.809  0.00  0.00     0.053 C 
ATOM     22  C           0     111.559 161.506 137.464  0.00  0.00     0.070 C 
ATOM     23  C           0     111.094 162.710 136.980  0.00  0.00     0.049 C 
ATOM     24  C           0     110.935 163.798 137.852  0.00  0.00    -0.021 C 
ATOM     25  C           0     110.680 165.090 137.360  0.00  0.00     0.012 C 
ATOM     26  C           0     110.420 166.101 138.236  0.00  0.00     0.002 C 
ATOM     27  C           0     110.343 165.867 139.600  0.00  0.00     0.016 C 
ATOM     28  C           0     110.560 164.591 140.130  0.00  0.00     0.027 C 
ATOM     29  C           0     111.063 163.603 139.252  0.00  0.00     0.003 C 
ATOM     30  C           0     110.976 165.173 143.861  0.00  0.00     0.003 C 
ENDROOT
BRANCH   9  31
ATOM     31  O           0     112.460 164.585 147.721  0.00  0.00    -0.351 OA
BRANCH  31  32
ATOM     32  C           0     113.788 164.070 147.602  0.00  0.00     0.171 C 
ATOM     33  C           0     113.983 162.927 148.598  0.00  0.00     0.034 C 
ENDBRANCH  31  32
ENDBRANCH   9  31
BRANCH  22  34
ATOM     34  O           0     111.701 160.448 136.624  0.00  0.00    -0.356 OA
ATOM     35  C           0     112.004 160.984 135.335  0.00  0.00     0.210 C 
ENDBRANCH  22  34
TORSDOF 3
ENDMDL
MODEL 8
REMARK VINA RESULT:      -7.0      3.165      5.270
REMARK  3 active torsions:
REMARK  status: ('A' for Active; 'I' for Inactive)
REMARK    1  A    between atoms: C_9  and  O_10 
REMARK    2  A    between atoms: O_10  and  C_11 
REMARK    3  A    between atoms: C_25  and  O_26 
ROOT
ATOM      1  O           0     112.087 172.216 139.803  0.00  0.00    -0.287 OA
ATOM      2  C           0     111.701 173.180 140.423  0.00  0.00     0.194 C 
ATOM      3  C           0     111.783 174.475 139.750  0.00  0.00     0.027 C 
ATOM      4  C           0     112.335 175.542 140.467  0.00  0.00     0.016 C 
ATOM      5  C           0     112.441 176.811 139.929  0.00  0.00     0.002 C 
ATOM      6  C           0     112.062 177.052 138.645  0.00  0.00     0.012 C 
ATOM      7  C           0     111.569 175.998 137.854  0.00  0.00    -0.021 C 
ATOM      8  C           0     111.324 176.226 136.488  0.00  0.00     0.049 C 
ATOM      9  C           0     110.786 175.228 135.708  0.00  0.00     0.070 C 
ATOM     10  C           0     110.451 174.004 136.277  0.00  0.00     0.053 C 
ATOM     11  C           0     110.675 173.754 137.625  0.00  0.00     0.024 C 
ATOM     12  C           0     110.251 172.479 138.198  0.00  0.00     0.133 C 
ATOM     13  N           0     110.099 171.263 137.727  0.00  0.00    -0.283 N 
ATOM     14  HN          0     110.071 171.013 136.738  1.00  0.00     0.188 HD
ATOM     15  N           0     109.988 170.427 138.714  0.00  0.00    -0.283 N 
ATOM     16  HN          0     109.939 169.412 138.622  1.00  0.00     0.188 HD
ATOM     17  C           0     109.948 171.084 139.839  0.00  0.00     0.133 C 
ATOM     18  N           0     109.751 172.417 139.503  0.00  0.00    -0.325 N 
ATOM     19  HN          0     109.383 173.135 140.038  0.00  0.00     0.169 HD
ATOM     20  C           0     110.143 170.702 141.244  0.00  0.00     0.024 C 
ATOM     21  C           0     109.915 169.406 141.675  0.00  0.00     0.053 C 
ATOM     22  C           0     110.019 169.080 143.027  0.00  0.00     0.070 C 
ATOM     23  C           0     110.289 170.059 143.959  0.00  0.00     0.049 C 
ATOM     24  C           0     110.495 171.383 143.541  0.00  0.00    -0.021 C 
ATOM     25  C           0     110.549 172.437 144.470  0.00  0.00     0.012 C 
ATOM     26  C           0     110.862 173.692 144.042  0.00  0.00     0.002 C 
ATOM     27  C           0     111.185 173.939 142.717  0.00  0.00     0.016 C 
ATOM     28  C           0     111.173 172.914 141.765  0.00  0.00     0.027 C 
ATOM     29  C           0     110.619 171.673 142.157  0.00  0.00     0.003 C 
ATOM     30  C           0     111.335 174.720 138.427  0.00  0.00     0.003 C 
ENDROOT
BRANCH   9  31
ATOM     31  O           0     110.573 175.442 134.384  0.00  0.00    -0.351 OA
BRANCH  31  32
ATOM     32  C           0     111.563 176.378 133.952  0.00  0.00     0.171 C 
ATOM     33  C           0     111.926 176.099 132.493  0.00  0.00     0.034 C 
ENDBRANCH  31  32
ENDBRANCH   9  31
BRANCH  22  34
ATOM     34  O           0     109.833 167.796 143.429  0.00  0.00    -0.356 OA
ATOM     35  C           0     108.958 167.189 142.478  0.00  0.00     0.210 C 
ENDBRANCH  22  34
TORSDOF 3
ENDMDL
MODEL 9
REMARK VINA RESULT:      -7.0      9.264     11.354
REMARK  3 active torsions:
REMARK  status: ('A' for Active; 'I' for Inactive)
REMARK    1  A    between atoms: C_9  and  O_10 
REMARK    2  A    between atoms: O_10  and  C_11 
REMARK    3  A    between atoms: C_25  and  O_26 
ROOT
ATOM      1  O           0     109.906 163.582 141.757  0.00  0.00    -0.287 OA
ATOM      2  C           0     110.999 163.207 141.399  0.00  0.00     0.194 C 
ATOM      3  C           0     111.203 163.041 139.962  0.00  0.00     0.027 C 
ATOM      4  C           0     111.807 161.856 139.527  0.00  0.00     0.016 C 
ATOM      5  C           0     112.061 161.609 138.191  0.00  0.00     0.002 C 
ATOM      6  C           0     111.672 162.496 137.236  0.00  0.00     0.012 C 
ATOM      7  C           0     110.993 163.670 137.612  0.00  0.00    -0.021 C 
ATOM      8  C           0     110.462 164.503 136.610  0.00  0.00     0.049 C 
ATOM      9  C           0     109.847 165.685 136.950  0.00  0.00     0.070 C 
ATOM     10  C           0     109.779 166.076 138.283  0.00  0.00     0.053 C 
ATOM     11  C           0     110.301 165.277 139.293  0.00  0.00     0.024 C 
ATOM     12  C           0     110.266 165.753 140.673  0.00  0.00     0.133 C 
ATOM     13  N           0     109.477 166.553 141.353  0.00  0.00    -0.283 N 
ATOM     14  HN          0     108.789 167.187 140.945  1.00  0.00     0.188 HD
ATOM     15  N           0     109.705 166.411 142.623  0.00  0.00    -0.283 N 
ATOM     16  HN          0     109.173 166.858 143.370  1.00  0.00     0.188 HD
ATOM     17  C           0     110.719 165.610 142.797  0.00  0.00     0.133 C 
ATOM     18  N           0     111.317 165.466 141.551  0.00  0.00    -0.325 N 
ATOM     19  HN          0     112.225 165.211 141.334  0.00  0.00     0.169 HD
ATOM     20  C           0     111.226 164.851 143.947  0.00  0.00     0.024 C 
ATOM     21  C           0     110.973 165.258 145.246  0.00  0.00     0.053 C 
ATOM     22  C           0     111.535 164.576 146.324  0.00  0.00     0.070 C 
ATOM     23  C           0     112.401 163.526 146.108  0.00  0.00     0.049 C 
ATOM     24  C           0     112.690 163.119 144.796  0.00  0.00    -0.021 C 
ATOM     25  C           0     113.729 162.209 144.531  0.00  0.00     0.012 C 
ATOM     26  C           0     113.909 161.749 143.261  0.00  0.00     0.002 C 
ATOM     27  C           0     113.052 162.117 142.236  0.00  0.00     0.016 C 
ATOM     28  C           0     111.987 162.996 142.461  0.00  0.00     0.027 C 
ATOM     29  C           0     111.946 163.655 143.712  0.00  0.00     0.003 C 
ATOM     30  C           0     110.835 164.001 138.984  0.00  0.00     0.003 C 
ENDROOT
BRANCH   9  31
ATOM     31  O           0     109.314 166.476 135.983  0.00  0.00    -0.351 OA
BRANCH  31  32
ATOM     32  C           0     108.248 167.209 136.590  0.00  0.00     0.171 C 
ATOM     33  C           0     108.409 168.697 136.276  0.00  0.00     0.034 C 
ENDBRANCH  31  32
ENDBRANCH   9  31
BRANCH  22  34
ATOM     34  O           0     111.245 164.962 147.593  0.00  0.00    -0.356 OA
ATOM     35  C           0     110.201 164.105 148.056  0.00  0.00     0.210 C 
ENDBRANCH  22  34
TORSDOF 3
ENDMDL
