REMARK  2 active torsions:
REMARK  status: ('A' for Active; 'I' for Inactive)
REMARK    1  A    between atoms: C_5  and  C_6 
REMARK    2  A    between atoms: C_6  and  O_7 
ROOT
ATOM      1  O           0      -0.353  -0.832   1.426  0.00  0.00    -0.287 OA
ATOM      2  C           0      -0.118   0.067   0.650  0.00  0.00     0.194 C 
ATOM      3  C           0       1.283   0.289   0.303  0.00  0.00     0.028 C 
ATOM      4  C           0       1.763   1.602   0.342  0.00  0.00     0.025 C 
ATOM      5  C           0       3.071   1.914   0.018  0.00  0.00    -0.033 C 
ATOM      6  C           0       3.962   0.934  -0.293  0.00  0.00     0.021 C 
ATOM      7  C           0       3.550  -0.411  -0.281  0.00  0.00    -0.023 C 
ATOM      8  C           0       4.508  -1.425  -0.461  0.00  0.00     0.012 C 
ATOM      9  C           0       4.125  -2.730  -0.525  0.00  0.00     0.002 C 
ATOM     10  C           0       2.784  -3.068  -0.434  0.00  0.00     0.016 C 
ATOM     11  C           0       1.808  -2.096  -0.252  0.00  0.00     0.021 C 
ATOM     12  C           0       0.402  -2.486  -0.217  0.00  0.00     0.132 C 
ATOM     13  N           0      -0.242  -3.571   0.146  0.00  0.00    -0.283 N 
ATOM     14  HN          0       0.185  -4.483   0.307  1.00  0.00     0.188 HD
ATOM     15  N           0      -1.506  -3.304   0.268  0.00  0.00    -0.283 N 
ATOM     16  HN          0      -2.213  -3.952   0.615  1.00  0.00     0.188 HD
ATOM     17  C           0      -1.734  -2.081  -0.120  0.00  0.00     0.132 C 
ATOM     18  N           0      -0.581  -1.663  -0.776  0.00  0.00    -0.325 N 
ATOM     19  HN          0      -0.472  -0.965  -1.438  0.00  0.00     0.169 HD
ATOM     20  C           0      -2.847  -1.145   0.076  0.00  0.00     0.021 C 
ATOM     21  C           0      -4.136  -1.596   0.314  0.00  0.00     0.016 C 
ATOM     22  C           0      -5.192  -0.700   0.408  0.00  0.00     0.002 C 
ATOM     23  C           0      -4.987   0.634   0.213  0.00  0.00     0.012 C 
ATOM     24  C           0      -3.697   1.115  -0.059  0.00  0.00    -0.024 C 
ATOM     25  C           0      -3.486   2.438  -0.485  0.00  0.00     0.019 C 
ATOM     26  C           0      -2.214   2.899  -0.637  0.00  0.00    -0.060 C 
ATOM     27  C           0      -1.991   4.302  -1.140  0.00  0.00     0.048 C 
ATOM     28  C           0      -1.120   2.110  -0.315  0.00  0.00     0.023 C 
ATOM     29  C           0      -1.283   0.800   0.144  0.00  0.00     0.027 C 
ATOM     30  C           0      -2.583   0.246   0.068  0.00  0.00     0.002 C 
ATOM     31  C           0       2.184  -0.740  -0.076  0.00  0.00     0.002 C 
ENDROOT
BRANCH   5  32
ATOM     32  C           0       3.520   3.352   0.031  0.00  0.00     0.202 C 
BRANCH  32  33
ATOM     33  O           0       4.013   3.685   1.330  0.00  0.00    -0.396 OA
ATOM     34  H           0       4.289   4.611   1.295  0.00  0.00     0.209 HD
ENDBRANCH  32  33
ENDBRANCH   5  32
TORSDOF 2
