MODEL 1
REMARK VINA RESULT:      -9.1      0.000      0.000
REMARK  2 active torsions:
REMARK  status: ('A' for Active; 'I' for Inactive)
REMARK    1  A    between atoms: C_9  and  C_10 
REMARK    2  A    between atoms: C_10  and  O_11 
ROOT
ATOM      1  O           0      94.553 187.840 142.027  0.00  0.00    -0.287 OA
ATOM      2  C           0      93.501 188.435 141.976  0.00  0.00     0.194 C 
ATOM      3  C           0      92.759 188.356 140.720  0.00  0.00     0.027 C 
ATOM      4  C           0      91.393 188.066 140.788  0.00  0.00     0.016 C 
ATOM      5  C           0      90.602 187.982 139.657  0.00  0.00     0.002 C 
ATOM      6  C           0      91.149 188.123 138.419  0.00  0.00     0.012 C 
ATOM      7  C           0      92.530 188.350 138.288  0.00  0.00    -0.023 C 
ATOM      8  C           0      93.108 188.352 137.006  0.00  0.00     0.021 C 
ATOM      9  C           0      94.431 188.631 136.848  0.00  0.00    -0.033 C 
ATOM     10  C           0      95.215 188.942 137.947  0.00  0.00     0.025 C 
ATOM     11  C           0      94.680 188.955 139.229  0.00  0.00     0.022 C 
ATOM     12  C           0      95.525 189.346 140.355  0.00  0.00     0.133 C 
ATOM     13  N           0      96.810 189.273 140.610  0.00  0.00    -0.283 N 
ATOM     14  HN          0      97.538 189.080 139.922  1.00  0.00     0.188 HD
ATOM     15  N           0      97.013 189.484 141.875  0.00  0.00    -0.283 N 
ATOM     16  HN          0      97.913 189.405 142.349  1.00  0.00     0.188 HD
ATOM     17  C           0      95.890 189.813 142.449  0.00  0.00     0.133 C 
ATOM     18  N           0      94.994 190.081 141.420  0.00  0.00    -0.325 N 
ATOM     19  HN          0      94.191 190.623 141.433  0.00  0.00     0.169 HD
ATOM     20  C           0      95.436 189.857 143.844  0.00  0.00     0.022 C 
ATOM     21  C           0      96.328 190.031 144.889  0.00  0.00     0.023 C 
ATOM     22  C           0      95.870 190.163 146.193  0.00  0.00    -0.060 C 
ATOM     23  C           0      96.859 190.310 147.320  0.00  0.00     0.048 C 
ATOM     24  C           0      94.534 190.180 146.461  0.00  0.00     0.019 C 
ATOM     25  C           0      93.607 190.031 145.417  0.00  0.00    -0.024 C 
ATOM     26  C           0      92.236 190.264 145.622  0.00  0.00     0.012 C 
ATOM     27  C           0      91.353 190.004 144.617  0.00  0.00     0.002 C 
ATOM     28  C           0      91.775 189.459 143.415  0.00  0.00     0.016 C 
ATOM     29  C           0      93.125 189.182 143.178  0.00  0.00     0.027 C 
ATOM     30  C           0      94.059 189.670 144.122  0.00  0.00     0.002 C 
ATOM     31  C           0      93.334 188.562 139.438  0.00  0.00     0.002 C 
ENDROOT
BRANCH   9  32
ATOM     32  C           0      95.043 188.609 135.472  0.00  0.00     0.202 C 
BRANCH  32  33
ATOM     33  O           0      96.466 188.547 135.585  0.00  0.00    -0.396 OA
ATOM     34  H           0      96.682 188.753 136.505  0.00  0.00     0.209 HD
ENDBRANCH  32  33
ENDBRANCH   9  32
TORSDOF 2
ENDMDL
MODEL 2
REMARK VINA RESULT:      -8.8     22.242     23.204
REMARK  2 active torsions:
REMARK  status: ('A' for Active; 'I' for Inactive)
REMARK    1  A    between atoms: C_9  and  C_10 
REMARK    2  A    between atoms: C_10  and  O_11 
ROOT
ATOM      1  O           0     112.488 174.315 135.518  0.00  0.00    -0.287 OA
ATOM      2  C           0     111.509 173.656 135.787  0.00  0.00     0.194 C 
ATOM      3  C           0     110.869 172.945 134.683  0.00  0.00     0.027 C 
ATOM      4  C           0     110.539 171.600 134.878  0.00  0.00     0.016 C 
ATOM      5  C           0     109.920 170.846 133.899  0.00  0.00     0.002 C 
ATOM      6  C           0     109.660 171.381 132.674  0.00  0.00     0.012 C 
ATOM      7  C           0     110.030 172.709 132.401  0.00  0.00    -0.023 C 
ATOM      8  C           0     109.889 173.206 131.093  0.00  0.00     0.021 C 
ATOM      9  C           0     110.182 174.507 130.816  0.00  0.00    -0.033 C 
ATOM     10  C           0     110.596 175.359 131.826  0.00  0.00     0.025 C 
ATOM     11  C           0     110.745 174.907 133.131  0.00  0.00     0.022 C 
ATOM     12  C           0     111.126 175.851 134.179  0.00  0.00     0.133 C 
ATOM     13  N           0     111.827 176.961 134.208  0.00  0.00    -0.283 N 
ATOM     14  HN          0     112.097 177.508 133.391  1.00  0.00     0.188 HD
ATOM     15  N           0     112.123 177.254 135.437  0.00  0.00    -0.283 N 
ATOM     16  HN          0     112.727 178.022 135.730  1.00  0.00     0.188 HD
ATOM     17  C           0     111.530 176.416 136.241  0.00  0.00     0.133 C 
ATOM     18  N           0     110.598 175.733 135.468  0.00  0.00    -0.325 N 
ATOM     19  HN          0     109.792 175.271 135.746  0.00  0.00     0.169 HD
ATOM     20  C           0     111.721 176.052 137.650  0.00  0.00     0.022 C 
ATOM     21  C           0     112.282 176.937 138.556  0.00  0.00     0.023 C 
ATOM     22  C           0     112.369 176.608 139.902  0.00  0.00    -0.060 C 
ATOM     23  C           0     113.020 177.567 140.863  0.00  0.00     0.048 C 
ATOM     24  C           0     111.854 175.433 140.364  0.00  0.00     0.019 C 
ATOM     25  C           0     111.256 174.529 139.472  0.00  0.00    -0.024 C 
ATOM     26  C           0     110.524 173.424 139.936  0.00  0.00     0.012 C 
ATOM     27  C           0     110.051 172.508 139.045  0.00  0.00     0.002 C 
ATOM     28  C           0     110.330 172.615 137.691  0.00  0.00     0.016 C 
ATOM     29  C           0     111.081 173.682 137.187  0.00  0.00     0.027 C 
ATOM     30  C           0     111.364 174.748 138.074  0.00  0.00     0.002 C 
ATOM     31  C           0     110.554 173.534 133.430  0.00  0.00     0.002 C 
ENDROOT
BRANCH   9  32
ATOM     32  C           0     110.047 175.022 129.407  0.00  0.00     0.202 C 
BRANCH  32  33
ATOM     33  O           0     108.807 175.721 129.273  0.00  0.00    -0.396 OA
ATOM     34  H           0     109.009 176.664 129.347  0.00  0.00     0.209 HD
ENDBRANCH  32  33
ENDBRANCH   9  32
TORSDOF 2
ENDMDL
MODEL 3
REMARK VINA RESULT:      -8.8      3.017      5.259
REMARK  2 active torsions:
REMARK  status: ('A' for Active; 'I' for Inactive)
REMARK    1  A    between atoms: C_9  and  C_10 
REMARK    2  A    between atoms: C_10  and  O_11 
ROOT
ATOM      1  O           0      93.825 186.868 136.899  0.00  0.00    -0.287 OA
ATOM      2  C           0      92.759 187.439 136.866  0.00  0.00     0.194 C 
ATOM      3  C           0      92.006 187.360 135.617  0.00  0.00     0.027 C 
ATOM      4  C           0      90.648 187.037 135.695  0.00  0.00     0.016 C 
ATOM      5  C           0      89.848 186.950 134.570  0.00  0.00     0.002 C 
ATOM      6  C           0      90.379 187.123 133.328  0.00  0.00     0.012 C 
ATOM      7  C           0      91.752 187.385 133.188  0.00  0.00    -0.023 C 
ATOM      8  C           0      92.317 187.419 131.900  0.00  0.00     0.021 C 
ATOM      9  C           0      93.631 187.732 131.733  0.00  0.00    -0.033 C 
ATOM     10  C           0      94.419 188.045 132.829  0.00  0.00     0.025 C 
ATOM     11  C           0      93.897 188.026 134.117  0.00  0.00     0.022 C 
ATOM     12  C           0      94.744 188.421 135.240  0.00  0.00     0.133 C 
ATOM     13  N           0      96.033 188.375 135.481  0.00  0.00    -0.283 N 
ATOM     14  HN          0      96.758 188.209 134.783  1.00  0.00     0.188 HD
ATOM     15  N           0      96.244 188.572 136.747  0.00  0.00    -0.283 N 
ATOM     16  HN          0      97.150 188.508 137.210  1.00  0.00     0.188 HD
ATOM     17  C           0      95.119 188.866 137.336  0.00  0.00     0.133 C 
ATOM     18  N           0      94.207 189.128 136.320  0.00  0.00    -0.325 N 
ATOM     19  HN          0      93.392 189.650 136.349  0.00  0.00     0.169 HD
ATOM     20  C           0      94.678 188.879 138.736  0.00  0.00     0.022 C 
ATOM     21  C           0      95.577 189.059 139.775  0.00  0.00     0.023 C 
ATOM     22  C           0      95.130 189.161 141.086  0.00  0.00    -0.060 C 
ATOM     23  C           0      96.126 189.315 142.204  0.00  0.00     0.048 C 
ATOM     24  C           0      93.796 189.142 141.367  0.00  0.00     0.019 C 
ATOM     25  C           0      92.862 188.986 140.330  0.00  0.00    -0.024 C 
ATOM     26  C           0      91.488 189.183 140.552  0.00  0.00     0.012 C 
ATOM     27  C           0      90.601 188.918 139.552  0.00  0.00     0.002 C 
ATOM     28  C           0      91.024 188.400 138.338  0.00  0.00     0.016 C 
ATOM     29  C           0      92.378 188.159 138.084  0.00  0.00     0.027 C 
ATOM     30  C           0      93.310 188.655 139.025  0.00  0.00     0.002 C 
ATOM     31  C           0      92.563 187.598 134.333  0.00  0.00     0.002 C 
ENDROOT
BRANCH   9  32
ATOM     32  C           0      94.230 187.745 130.351  0.00  0.00     0.202 C 
BRANCH  32  33
ATOM     33  O           0      95.541 187.180 130.395  0.00  0.00    -0.396 OA
ATOM     34  H           0      95.884 187.337 131.286  0.00  0.00     0.209 HD
ENDBRANCH  32  33
ENDBRANCH   9  32
TORSDOF 2
ENDMDL
MODEL 4
REMARK VINA RESULT:      -8.7     21.841     22.475
REMARK  2 active torsions:
REMARK  status: ('A' for Active; 'I' for Inactive)
REMARK    1  A    between atoms: C_9  and  C_10 
REMARK    2  A    between atoms: C_10  and  O_11 
ROOT
ATOM      1  O           0     113.147 175.011 140.536  0.00  0.00    -0.287 OA
ATOM      2  C           0     112.144 174.389 140.802  0.00  0.00     0.194 C 
ATOM      3  C           0     111.474 173.712 139.694  0.00  0.00     0.027 C 
ATOM      4  C           0     111.094 172.379 139.880  0.00  0.00     0.016 C 
ATOM      5  C           0     110.443 171.657 138.897  0.00  0.00     0.002 C 
ATOM      6  C           0     110.202 172.211 137.677  0.00  0.00     0.012 C 
ATOM      7  C           0     110.622 173.526 137.413  0.00  0.00    -0.023 C 
ATOM      8  C           0     110.497 174.038 136.109  0.00  0.00     0.021 C 
ATOM      9  C           0     110.840 175.328 135.841  0.00  0.00    -0.033 C 
ATOM     10  C           0     111.289 176.157 136.857  0.00  0.00     0.025 C 
ATOM     11  C           0     111.423 175.689 138.158  0.00  0.00     0.022 C 
ATOM     12  C           0     111.842 176.609 139.212  0.00  0.00     0.133 C 
ATOM     13  N           0     112.586 177.691 139.247  0.00  0.00    -0.283 N 
ATOM     14  HN          0     112.875 178.233 138.434  1.00  0.00     0.188 HD
ATOM     15  N           0     112.896 177.963 140.479  0.00  0.00    -0.283 N 
ATOM     16  HN          0     113.529 178.704 140.776  1.00  0.00     0.188 HD
ATOM     17  C           0     112.273 177.143 141.277  0.00  0.00     0.133 C 
ATOM     18  N           0     111.313 176.502 140.502  0.00  0.00    -0.325 N 
ATOM     19  HN          0     110.491 176.069 140.778  0.00  0.00     0.169 HD
ATOM     20  C           0     112.452 176.760 142.683  0.00  0.00     0.022 C 
ATOM     21  C           0     113.049 177.616 143.594  0.00  0.00     0.023 C 
ATOM     22  C           0     113.126 177.273 144.938  0.00  0.00    -0.060 C 
ATOM     23  C           0     113.816 178.199 145.905  0.00  0.00     0.048 C 
ATOM     24  C           0     112.567 176.116 145.392  0.00  0.00     0.019 C 
ATOM     25  C           0     111.933 175.243 144.494  0.00  0.00    -0.024 C 
ATOM     26  C           0     111.160 174.163 144.952  0.00  0.00     0.012 C 
ATOM     27  C           0     110.650 173.273 144.055  0.00  0.00     0.002 C 
ATOM     28  C           0     110.930 173.380 142.701  0.00  0.00     0.016 C 
ATOM     29  C           0     111.720 174.421 142.204  0.00  0.00     0.027 C 
ATOM     30  C           0     112.046 175.468 143.098  0.00  0.00     0.002 C 
ATOM     31  C           0     111.180 174.322 138.447  0.00  0.00     0.002 C 
ENDROOT
BRANCH   9  32
ATOM     32  C           0     110.722 175.860 134.437  0.00  0.00     0.202 C 
BRANCH  32  33
ATOM     33  O           0     111.294 177.167 134.373  0.00  0.00    -0.396 OA
ATOM     34  H           0     111.144 177.494 133.475  0.00  0.00     0.209 HD
ENDBRANCH  32  33
ENDBRANCH   9  32
TORSDOF 2
ENDMDL
MODEL 5
REMARK VINA RESULT:      -8.3     27.087     28.235
REMARK  2 active torsions:
REMARK  status: ('A' for Active; 'I' for Inactive)
REMARK    1  A    between atoms: C_9  and  C_10 
REMARK    2  A    between atoms: C_10  and  O_11 
ROOT
ATOM      1  O           0     111.050 166.863 138.299  0.00  0.00    -0.287 OA
ATOM      2  C           0     110.765 165.689 138.367  0.00  0.00     0.194 C 
ATOM      3  C           0     110.632 164.967 137.104  0.00  0.00     0.027 C 
ATOM      4  C           0     111.274 163.731 136.989  0.00  0.00     0.016 C 
ATOM      5  C           0     111.198 162.967 135.839  0.00  0.00     0.002 C 
ATOM      6  C           0     110.534 163.429 134.745  0.00  0.00     0.012 C 
ATOM      7  C           0     109.926 164.696 134.781  0.00  0.00    -0.023 C 
ATOM      8  C           0     109.367 165.224 133.604  0.00  0.00     0.021 C 
ATOM      9  C           0     108.719 166.421 133.627  0.00  0.00    -0.033 C 
ATOM     10  C           0     108.580 167.117 134.817  0.00  0.00     0.025 C 
ATOM     11  C           0     109.114 166.626 136.001  0.00  0.00     0.022 C 
ATOM     12  C           0     108.894 167.359 137.246  0.00  0.00     0.133 C 
ATOM     13  N           0     108.707 168.623 137.548  0.00  0.00    -0.283 N 
ATOM     14  HN          0     108.476 169.360 136.883  1.00  0.00     0.188 HD
ATOM     15  N           0     108.863 168.789 138.827  0.00  0.00    -0.283 N 
ATOM     16  HN          0     108.850 169.688 139.309  1.00  0.00     0.188 HD
ATOM     17  C           0     109.037 167.632 139.399  0.00  0.00     0.133 C 
ATOM     18  N           0     108.699 166.675 138.449  0.00  0.00    -0.325 N 
ATOM     19  HN          0     108.418 165.757 138.578  0.00  0.00     0.169 HD
ATOM     20  C           0     109.557 167.213 140.707  0.00  0.00     0.022 C 
ATOM     21  C           0     109.497 168.048 141.810  0.00  0.00     0.023 C 
ATOM     22  C           0     109.909 167.600 143.058  0.00  0.00    -0.060 C 
ATOM     23  C           0     109.875 168.538 144.236  0.00  0.00     0.048 C 
ATOM     24  C           0     110.327 166.314 143.230  0.00  0.00     0.019 C 
ATOM     25  C           0     110.373 165.438 142.134  0.00  0.00    -0.024 C 
ATOM     26  C           0     110.582 164.060 142.311  0.00  0.00     0.012 C 
ATOM     27  C           0     110.730 163.257 141.221  0.00  0.00     0.002 C 
ATOM     28  C           0     110.737 163.783 139.938  0.00  0.00     0.016 C 
ATOM     29  C           0     110.563 165.153 139.715  0.00  0.00     0.027 C 
ATOM     30  C           0     110.174 165.943 140.823  0.00  0.00     0.002 C 
ATOM     31  C           0     109.889 165.439 135.990  0.00  0.00     0.002 C 
ENDROOT
BRANCH   9  32
ATOM     32  C           0     108.143 166.986 132.355  0.00  0.00     0.202 C 
BRANCH  32  33
ATOM     33  O           0     108.014 168.404 132.480  0.00  0.00    -0.396 OA
ATOM     34  H           0     108.424 168.648 133.322  0.00  0.00     0.209 HD
ENDBRANCH  32  33
ENDBRANCH   9  32
TORSDOF 2
ENDMDL
MODEL 6
REMARK VINA RESULT:      -8.3     42.413     44.457
REMARK  2 active torsions:
REMARK  status: ('A' for Active; 'I' for Inactive)
REMARK    1  A    between atoms: C_9  and  C_10 
REMARK    2  A    between atoms: C_10  and  O_11 
ROOT
ATOM      1  O           0     135.511 171.981 138.093  0.00  0.00    -0.287 OA
ATOM      2  C           0     134.419 172.462 138.291  0.00  0.00     0.194 C 
ATOM      3  C           0     134.109 172.856 139.663  0.00  0.00     0.027 C 
ATOM      4  C           0     133.548 174.120 139.866  0.00  0.00     0.016 C 
ATOM      5  C           0     133.208 174.580 141.125  0.00  0.00     0.002 C 
ATOM      6  C           0     133.467 173.827 142.229  0.00  0.00     0.012 C 
ATOM      7  C           0     134.091 172.575 142.089  0.00  0.00    -0.023 C 
ATOM      8  C           0     134.484 171.870 143.241  0.00  0.00     0.021 C 
ATOM      9  C           0     135.033 170.630 143.134  0.00  0.00    -0.033 C 
ATOM     10  C           0     135.186 170.038 141.891  0.00  0.00     0.025 C 
ATOM     11  C           0     134.807 170.700 140.730  0.00  0.00     0.022 C 
ATOM     12  C           0     134.928 170.020 139.443  0.00  0.00     0.133 C 
ATOM     13  N           0     135.723 169.091 138.964  0.00  0.00    -0.283 N 
ATOM     14  HN          0     136.334 168.494 139.522  1.00  0.00     0.188 HD
ATOM     15  N           0     135.611 169.050 137.672  0.00  0.00    -0.283 N 
ATOM     16  HN          0     136.177 168.473 137.050  1.00  0.00     0.188 HD
ATOM     17  C           0     134.666 169.861 137.289  0.00  0.00     0.133 C 
ATOM     18  N           0     133.974 170.219 138.441  0.00  0.00    -0.325 N 
ATOM     19  HN          0     133.066 170.545 138.533  0.00  0.00     0.169 HD
ATOM     20  C           0     134.302 170.463 136.000  0.00  0.00     0.022 C 
ATOM     21  C           0     134.631 169.854 134.800  0.00  0.00     0.023 C 
ATOM     22  C           0     134.199 170.391 133.595  0.00  0.00    -0.060 C 
ATOM     23  C           0     134.603 169.737 132.300  0.00  0.00     0.048 C 
ATOM     24  C           0     133.396 171.492 133.574  0.00  0.00     0.019 C 
ATOM     25  C           0     133.026 172.114 134.777  0.00  0.00    -0.024 C 
ATOM     26  C           0     132.031 173.106 134.808  0.00  0.00     0.012 C 
ATOM     27  C           0     131.775 173.764 135.973  0.00  0.00     0.002 C 
ATOM     28  C           0     132.518 173.515 137.116  0.00  0.00     0.016 C 
ATOM     29  C           0     133.538 172.558 137.124  0.00  0.00     0.027 C 
ATOM     30  C           0     133.642 171.716 135.992  0.00  0.00     0.002 C 
ATOM     31  C           0     134.334 172.036 140.799  0.00  0.00     0.002 C 
ENDROOT
BRANCH   9  32
ATOM     32  C           0     135.469 169.893 144.374  0.00  0.00     0.202 C 
BRANCH  32  33
ATOM     33  O           0     136.053 168.643 144.004  0.00  0.00    -0.396 OA
ATOM     34  H           0     137.010 168.737 144.117  0.00  0.00     0.209 HD
ENDBRANCH  32  33
ENDBRANCH   9  32
TORSDOF 2
ENDMDL
MODEL 7
REMARK VINA RESULT:      -8.2     42.523     44.371
REMARK  2 active torsions:
REMARK  status: ('A' for Active; 'I' for Inactive)
REMARK    1  A    between atoms: C_9  and  C_10 
REMARK    2  A    between atoms: C_10  and  O_11 
ROOT
ATOM      1  O           0     133.622 170.576 143.912  0.00  0.00    -0.287 OA
ATOM      2  C           0     133.760 171.773 143.804  0.00  0.00     0.194 C 
ATOM      3  C           0     133.503 172.351 142.486  0.00  0.00     0.027 C 
ATOM      4  C           0     132.696 173.491 142.421  0.00  0.00     0.016 C 
ATOM      5  C           0     132.405 174.117 141.223  0.00  0.00     0.002 C 
ATOM      6  C           0     132.854 173.602 140.046  0.00  0.00     0.012 C 
ATOM      7  C           0     133.615 172.420 140.047  0.00  0.00    -0.023 C 
ATOM      8  C           0     133.952 171.818 138.821  0.00  0.00     0.021 C 
ATOM      9  C           0     134.739 170.708 138.793  0.00  0.00    -0.033 C 
ATOM     10  C           0     135.238 170.176 139.972  0.00  0.00     0.025 C 
ATOM     11  C           0     134.931 170.743 141.202  0.00  0.00     0.022 C 
ATOM     12  C           0     135.525 170.189 142.416  0.00  0.00     0.133 C 
ATOM     13  N           0     135.940 168.997 142.776  0.00  0.00    -0.283 N 
ATOM     14  HN          0     136.106 168.215 142.143  1.00  0.00     0.188 HD
ATOM     15  N           0     136.105 168.967 144.064  0.00  0.00    -0.283 N 
ATOM     16  HN          0     136.345 168.138 144.607  1.00  0.00     0.188 HD
ATOM     17  C           0     135.917 170.159 144.556  0.00  0.00     0.133 C 
ATOM     18  N           0     135.900 171.027 143.470  0.00  0.00    -0.325 N 
ATOM     19  HN          0     136.081 171.979 143.444  0.00  0.00     0.169 HD
ATOM     20  C           0     135.661 170.672 145.907  0.00  0.00     0.022 C 
ATOM     21  C           0     136.082 169.983 147.033  0.00  0.00     0.023 C 
ATOM     22  C           0     135.912 170.529 148.299  0.00  0.00    -0.060 C 
ATOM     23  C           0     136.339 169.746 149.512  0.00  0.00     0.048 C 
ATOM     24  C           0     135.381 171.775 148.451  0.00  0.00     0.019 C 
ATOM     25  C           0     134.971 172.506 147.325  0.00  0.00    -0.024 C 
ATOM     26  C           0     134.629 173.866 147.424  0.00  0.00     0.012 C 
ATOM     27  C           0     134.131 174.515 146.334  0.00  0.00     0.002 C 
ATOM     28  C           0     133.899 173.843 145.144  0.00  0.00     0.016 C 
ATOM     29  C           0     134.194 172.483 145.009  0.00  0.00     0.027 C 
ATOM     30  C           0     134.927 171.874 146.055  0.00  0.00     0.002 C 
ATOM     31  C           0     134.025 171.832 141.272  0.00  0.00     0.002 C 
ENDROOT
BRANCH   9  32
ATOM     32  C           0     135.076 170.061 137.476  0.00  0.00     0.202 C 
BRANCH  32  33
ATOM     33  O           0     135.772 168.835 137.712  0.00  0.00    -0.396 OA
ATOM     34  H           0     136.695 168.986 137.462  0.00  0.00     0.209 HD
ENDBRANCH  32  33
ENDBRANCH   9  32
TORSDOF 2
ENDMDL
MODEL 8
REMARK VINA RESULT:      -8.1     29.292     31.057
REMARK  2 active torsions:
REMARK  status: ('A' for Active; 'I' for Inactive)
REMARK    1  A    between atoms: C_9  and  C_10 
REMARK    2  A    between atoms: C_10  and  O_11 
ROOT
ATOM      1  O           0     111.932 164.759 137.268  0.00  0.00    -0.287 OA
ATOM      2  C           0     110.839 165.119 137.645  0.00  0.00     0.194 C 
ATOM      3  C           0     110.605 165.119 139.087  0.00  0.00     0.027 C 
ATOM      4  C           0     110.019 166.256 139.651  0.00  0.00     0.016 C 
ATOM      5  C           0     109.746 166.347 141.003  0.00  0.00     0.002 C 
ATOM      6  C           0     110.097 165.340 141.850  0.00  0.00     0.012 C 
ATOM      7  C           0     110.749 164.201 141.346  0.00  0.00    -0.023 C 
ATOM      8  C           0     111.234 163.234 142.244  0.00  0.00     0.021 C 
ATOM      9  C           0     111.814 162.093 141.779  0.00  0.00    -0.033 C 
ATOM     10  C           0     111.906 161.862 140.416  0.00  0.00     0.025 C 
ATOM     11  C           0     111.434 162.792 139.497  0.00  0.00     0.022 C 
ATOM     12  C           0     111.495 162.485 138.070  0.00  0.00     0.133 C 
ATOM     13  N           0     112.286 161.755 137.319  0.00  0.00    -0.283 N 
ATOM     14  HN          0     112.949 161.060 137.662  1.00  0.00     0.188 HD
ATOM     15  N           0     112.095 162.055 136.070  0.00  0.00    -0.283 N 
ATOM     16  HN          0     112.637 161.690 135.287  1.00  0.00     0.188 HD
ATOM     17  C           0     111.102 162.893 135.970  0.00  0.00     0.133 C 
ATOM     18  N           0     110.474 162.900 137.210  0.00  0.00    -0.325 N 
ATOM     19  HN          0     109.564 163.147 137.434  0.00  0.00     0.169 HD
ATOM     20  C           0     110.640 163.799 134.911  0.00  0.00     0.022 C 
ATOM     21  C           0     110.911 163.548 133.576  0.00  0.00     0.023 C 
ATOM     22  C           0     110.387 164.365 132.583  0.00  0.00    -0.060 C 
ATOM     23  C           0     110.729 164.100 131.141  0.00  0.00     0.048 C 
ATOM     24  C           0     109.552 165.394 132.902  0.00  0.00     0.019 C 
ATOM     25  C           0     109.239 165.655 134.245  0.00  0.00    -0.024 C 
ATOM     26  C           0     108.219 166.556 134.594  0.00  0.00     0.012 C 
ATOM     27  C           0     108.016 166.868 135.905  0.00  0.00     0.002 C 
ATOM     28  C           0     108.837 166.358 136.898  0.00  0.00     0.016 C 
ATOM     29  C           0     109.885 165.482 136.595  0.00  0.00     0.027 C 
ATOM     30  C           0     109.943 164.977 135.274  0.00  0.00     0.002 C 
ATOM     31  C           0     110.927 164.037 139.947  0.00  0.00     0.002 C 
ENDROOT
BRANCH   9  32
ATOM     32  C           0     112.349 161.075 142.750  0.00  0.00     0.202 C 
BRANCH  32  33
ATOM     33  O           0     113.686 160.726 142.386  0.00  0.00    -0.396 OA
ATOM     34  H           0     113.835 159.823 142.700  0.00  0.00     0.209 HD
ENDBRANCH  32  33
ENDBRANCH   9  32
TORSDOF 2
ENDMDL
MODEL 9
REMARK VINA RESULT:      -8.0     42.358     43.950
REMARK  2 active torsions:
REMARK  status: ('A' for Active; 'I' for Inactive)
REMARK    1  A    between atoms: C_9  and  C_10 
REMARK    2  A    between atoms: C_10  and  O_11 
ROOT
ATOM      1  O           0     133.083 170.426 139.126  0.00  0.00    -0.287 OA
ATOM      2  C           0     133.168 171.613 138.912  0.00  0.00     0.194 C 
ATOM      3  C           0     132.925 172.056 137.541  0.00  0.00     0.027 C 
ATOM      4  C           0     132.068 173.144 137.350  0.00  0.00     0.016 C 
ATOM      5  C           0     131.785 173.645 136.092  0.00  0.00     0.002 C 
ATOM      6  C           0     132.293 173.048 134.979  0.00  0.00     0.012 C 
ATOM      7  C           0     133.107 171.909 135.109  0.00  0.00    -0.023 C 
ATOM      8  C           0     133.508 171.216 133.953  0.00  0.00     0.021 C 
ATOM      9  C           0     134.346 170.148 134.048  0.00  0.00    -0.033 C 
ATOM     10  C           0     134.834 169.749 135.282  0.00  0.00     0.025 C 
ATOM     11  C           0     134.464 170.410 136.447  0.00  0.00     0.022 C 
ATOM     12  C           0     135.045 169.998 137.722  0.00  0.00     0.133 C 
ATOM     13  N           0     135.504 168.865 138.201  0.00  0.00    -0.283 N 
ATOM     14  HN          0     135.726 168.038 137.646  1.00  0.00     0.188 HD
ATOM     15  N           0     135.631 168.960 139.489  0.00  0.00    -0.283 N 
ATOM     16  HN          0     135.893 168.197 140.113  1.00  0.00     0.188 HD
ATOM     17  C           0     135.374 170.181 139.864  0.00  0.00     0.133 C 
ATOM     18  N           0     135.349 170.946 138.704  0.00  0.00    -0.325 N 
ATOM     19  HN          0     135.487 171.899 138.595  0.00  0.00     0.169 HD
ATOM     20  C           0     135.054 170.802 141.156  0.00  0.00     0.022 C 
ATOM     21  C           0     135.472 170.239 142.351  0.00  0.00     0.023 C 
ATOM     22  C           0     135.239 170.889 143.556  0.00  0.00    -0.060 C 
ATOM     23  C           0     135.664 170.240 144.847  0.00  0.00     0.048 C 
ATOM     24  C           0     134.647 172.116 143.580  0.00  0.00     0.019 C 
ATOM     25  C           0     134.237 172.721 142.381  0.00  0.00    -0.024 C 
ATOM     26  C           0     133.830 174.065 142.346  0.00  0.00     0.012 C 
ATOM     27  C           0     133.336 174.588 141.188  0.00  0.00     0.002 C 
ATOM     28  C           0     133.170 173.801 140.059  0.00  0.00     0.016 C 
ATOM     29  C           0     133.533 172.450 140.058  0.00  0.00     0.027 C 
ATOM     30  C           0     134.261 171.975 141.174  0.00  0.00     0.002 C 
ATOM     31  C           0     133.507 171.456 136.393  0.00  0.00     0.002 C 
ENDROOT
BRANCH   9  32
ATOM     32  C           0     134.753 169.401 132.805  0.00  0.00     0.202 C 
BRANCH  32  33
ATOM     33  O           0     134.988 168.029 133.129  0.00  0.00    -0.396 OA
ATOM     34  H           0     134.797 167.928 134.072  0.00  0.00     0.209 HD
ENDBRANCH  32  33
ENDBRANCH   9  32
TORSDOF 2
ENDMDL
