REMARK  2 active torsions:
REMARK  status: ('A' for Active; 'I' for Inactive)
REMARK    1  A    between atoms: C_9  and  C_10 
REMARK    2  A    between atoms: C_10  and  O_11 
ROOT
ATOM      1  O           0      -0.439  -0.065  -1.647  0.00  0.00    -0.287 OA
ATOM      2  C           0      -0.355   0.830  -0.843  0.00  0.00     0.194 C 
ATOM      3  C           0       0.970   1.406  -0.617  0.00  0.00     0.027 A 
ATOM      4  C           0       1.090   2.798  -0.683  0.00  0.00     0.016 A 
ATOM      5  C           0       2.289   3.444  -0.444  0.00  0.00     0.002 A 
ATOM      6  C           0       3.419   2.732  -0.180  0.00  0.00     0.012 A 
ATOM      7  C           0       3.371   1.327  -0.171  0.00  0.00    -0.023 A 
ATOM      8  C           0       4.567   0.603  -0.013  0.00  0.00     0.021 A 
ATOM      9  C           0       4.548  -0.756   0.023  0.00  0.00    -0.033 A 
ATOM     10  C           0       3.346  -1.440  -0.066  0.00  0.00     0.025 A 
ATOM     11  C           0       2.141  -0.766  -0.205  0.00  0.00     0.022 A 
ATOM     12  C           0       0.893  -1.516  -0.261  0.00  0.00     0.134 C 
ATOM     13  N           0       0.496  -2.601  -0.885  0.00  0.00    -0.283 N 
ATOM     14  HN          0       1.110  -3.297  -1.308  1.00  0.00     0.188 HD
ATOM     15  N           0      -0.800  -2.648  -0.878  0.00  0.00    -0.283 N 
ATOM     16  HN          0      -1.367  -3.331  -1.381  1.00  0.00     0.188 HD
ATOM     17  C           0      -1.267  -1.688  -0.129  0.00  0.00     0.134 C 
ATOM     18  N           0      -0.180  -1.203   0.583  0.00  0.00    -0.320 N 
ATOM     19  C           0      -0.139  -0.594   1.917  0.00  0.00     0.159 C 
ATOM     20  C           0      -2.590  -1.062  -0.032  0.00  0.00     0.022 C 
ATOM     21  C           0      -3.746  -1.826  -0.079  0.00  0.00     0.023 C 
ATOM     22  C           0      -4.993  -1.239   0.079  0.00  0.00    -0.060 C 
ATOM     23  C           0      -6.235  -2.086  -0.010  0.00  0.00     0.048 C 
ATOM     24  C           0      -5.102   0.097   0.331  0.00  0.00     0.019 C 
ATOM     25  C           0      -3.949   0.894   0.404  0.00  0.00    -0.024 C 
ATOM     26  C           0      -4.025   2.225   0.851  0.00  0.00     0.012 C 
ATOM     27  C           0      -2.912   3.009   0.821  0.00  0.00     0.002 C 
ATOM     28  C           0      -1.715   2.533   0.308  0.00  0.00     0.016 C 
ATOM     29  C           0      -1.598   1.224  -0.172  0.00  0.00     0.027 C 
ATOM     30  C           0      -2.687   0.349   0.050  0.00  0.00     0.002 C 
ATOM     31  C           0       2.134   0.648  -0.331  0.00  0.00     0.002 A 
ENDROOT
BRANCH   9  32
ATOM     32  C           0       5.836  -1.521   0.171  0.00  0.00     0.202 C 
BRANCH  32  33
ATOM     33  O           0       6.114  -1.724   1.557  0.00  0.00    -0.396 OA
ATOM     34  H           0       6.945  -2.216   1.607  0.00  0.00     0.209 HD
ENDBRANCH  32  33
ENDBRANCH   9  32
TORSDOF 2
