REMARK  3 active torsions:
REMARK  status: ('A' for Active; 'I' for Inactive)
REMARK    1  A    between atoms: C_9  and  O_10 
REMARK    2  A    between atoms: O_10  and  C_11 
REMARK    3  A    between atoms: C_25  and  C_26 
ROOT
ATOM      1  O           0      -0.504  -0.133   1.377  0.00  0.00    -0.287 OA
ATOM      2  C           0      -0.396   0.842   0.668  0.00  0.00     0.196 C 
ATOM      3  C           0       0.948   1.388   0.494  0.00  0.00     0.039 C 
ATOM      4  C           0       1.112   2.769   0.640  0.00  0.00     0.003 C 
ATOM      5  C           0       2.340   3.384   0.481  0.00  0.00     0.000 C 
ATOM      6  C           0       3.456   2.646   0.233  0.00  0.00     0.000 C 
ATOM      7  C           0       3.361   1.246   0.143  0.00  0.00     0.002 C 
ATOM      8  C           0       4.538   0.486   0.028  0.00  0.00     0.024 C 
ATOM      9  C           0       4.468  -0.879  -0.121  0.00  0.00     0.094 C 
ATOM     10  C           0       3.229  -1.508  -0.192  0.00  0.00     0.027 C 
ATOM     11  C           0       2.051  -0.782  -0.089  0.00  0.00     0.035 C 
ATOM     12  C           0       0.772  -1.473  -0.232  0.00  0.00     0.133 C 
ATOM     13  N           0       0.355  -2.693   0.015  0.00  0.00    -0.283 N 
ATOM     14  HN          0       0.958  -3.497   0.192  1.00  0.00     0.188 HD
ATOM     15  N           0      -0.943  -2.719  -0.000  0.00  0.00    -0.283 N 
ATOM     16  HN          0      -1.518  -3.527   0.239  1.00  0.00     0.188 HD
ATOM     17  C           0      -1.397  -1.554  -0.367  0.00  0.00     0.133 C 
ATOM     18  N           0      -0.307  -0.854  -0.869  0.00  0.00    -0.325 N 
ATOM     19  HN          0      -0.290  -0.109  -1.488  0.00  0.00     0.169 HD
ATOM     20  C           0      -2.707  -0.899  -0.270  0.00  0.00     0.033 C 
ATOM     21  C           0      -3.880  -1.635  -0.204  0.00  0.00    -0.001 C 
ATOM     22  C           0      -5.114  -0.998  -0.204  0.00  0.00    -0.022 C 
ATOM     23  C           0      -5.193   0.358  -0.326  0.00  0.00    -0.004 C 
ATOM     24  C           0      -4.022   1.125  -0.422  0.00  0.00    -0.000 C 
ATOM     25  C           0      -4.068   2.487  -0.770  0.00  0.00    -0.000 C 
ATOM     26  C           0      -2.923   3.225  -0.746  0.00  0.00     0.000 C 
ATOM     27  C           0      -1.721   2.673  -0.330  0.00  0.00     0.003 C 
ATOM     28  C           0      -1.634   1.332   0.056  0.00  0.00     0.039 C 
ATOM     29  C           0      -2.761   0.513  -0.194  0.00  0.00     0.006 C 
ATOM     30  C           0       2.092   0.609   0.180  0.00  0.00     0.006 C 
ENDROOT
BRANCH   9  31
ATOM     31  O           0       5.608  -1.613  -0.209  0.00  0.00    -0.331 OA
BRANCH  31  32
ATOM     32  C           0       6.698  -0.694  -0.115  0.00  0.00     0.149 C 
ATOM     33  C           0       8.020  -1.460  -0.208  0.00  0.00     0.035 C 
ENDBRANCH  31  32
ENDBRANCH   9  31
BRANCH  22  34
ATOM     34  C           0      -6.374  -1.813  -0.090  0.00  0.00     0.026 C 
ATOM     35  C           0      -6.744  -1.978   1.385  0.00  0.00     0.005 C 
ENDBRANCH  22  34
TORSDOF 3
