MODEL 1
REMARK VINA RESULT:      -8.7      0.000      0.000
REMARK  2 active torsions:
REMARK  status: ('A' for Active; 'I' for Inactive)
REMARK    1  A    between atoms: C_9  and  O_10 
REMARK    2  A    between atoms: O_10  and  C_11 
ROOT
ATOM      1  O           0     113.097 174.928 140.390  0.00  0.00    -0.287 OA
ATOM      2  C           0     112.119 174.270 140.667  0.00  0.00     0.194 C 
ATOM      3  C           0     111.470 173.558 139.567  0.00  0.00     0.027 C 
ATOM      4  C           0     111.143 172.213 139.770  0.00  0.00     0.016 C 
ATOM      5  C           0     110.515 171.456 138.798  0.00  0.00     0.002 C 
ATOM      6  C           0     110.244 171.986 137.574  0.00  0.00     0.012 C 
ATOM      7  C           0     110.614 173.313 137.293  0.00  0.00    -0.021 C 
ATOM      8  C           0     110.460 173.803 135.984  0.00  0.00     0.049 C 
ATOM      9  C           0     110.758 175.114 135.697  0.00  0.00     0.077 C 
ATOM     10  C           0     111.184 175.968 136.709  0.00  0.00     0.053 C 
ATOM     11  C           0     111.338 175.514 138.012  0.00  0.00     0.024 C 
ATOM     12  C           0     111.725 176.460 139.056  0.00  0.00     0.133 C 
ATOM     13  N           0     112.428 177.569 139.078  0.00  0.00    -0.283 N 
ATOM     14  HN          0     112.694 178.114 138.258  1.00  0.00     0.188 HD
ATOM     15  N           0     112.731 177.865 140.305  0.00  0.00    -0.283 N 
ATOM     16  HN          0     113.336 178.634 140.593  1.00  0.00     0.188 HD
ATOM     17  C           0     112.143 177.030 141.113  0.00  0.00     0.133 C 
ATOM     18  N           0     111.206 176.346 140.349  0.00  0.00    -0.325 N 
ATOM     19  HN          0     110.403 175.884 140.633  0.00  0.00     0.169 HD
ATOM     20  C           0     112.343 176.669 142.522  0.00  0.00     0.022 C 
ATOM     21  C           0     112.909 177.558 143.423  0.00  0.00     0.023 C 
ATOM     22  C           0     113.007 177.234 144.769  0.00  0.00    -0.060 C 
ATOM     23  C           0     113.664 178.196 145.723  0.00  0.00     0.048 C 
ATOM     24  C           0     112.496 176.059 145.237  0.00  0.00     0.019 C 
ATOM     25  C           0     111.892 175.153 144.352  0.00  0.00    -0.024 C 
ATOM     26  C           0     111.165 174.047 144.825  0.00  0.00     0.012 C 
ATOM     27  C           0     110.687 173.129 143.940  0.00  0.00     0.002 C 
ATOM     28  C           0     110.954 173.232 142.583  0.00  0.00     0.016 C 
ATOM     29  C           0     111.702 174.298 142.071  0.00  0.00     0.027 C 
ATOM     30  C           0     111.989 175.367 142.953  0.00  0.00     0.002 C 
ATOM     31  C           0     111.147 174.142 138.315  0.00  0.00     0.003 C 
ENDROOT
BRANCH   9  32
ATOM     32  O           0     110.630 175.578 134.427  0.00  0.00    -0.311 OA
BRANCH  32  33
ATOM     33  C           0     111.545 174.914 133.672  0.00  0.00     0.076 A 
ATOM     34  C           0     112.871 175.324 133.669  0.00  0.00     0.037 A 
ATOM     35  C           0     113.800 174.643 132.907  0.00  0.00     0.003 A 
ATOM     36  C           0     113.409 173.561 132.140  0.00  0.00     0.000 A 
ATOM     37  C           0     112.087 173.155 132.138  0.00  0.00     0.003 A 
ATOM     38  C           0     111.155 173.828 132.903  0.00  0.00     0.037 A 
ENDBRANCH  32  33
ENDBRANCH   9  32
TORSDOF 2
ENDMDL
MODEL 2
REMARK VINA RESULT:      -8.5      8.723     13.622
REMARK  2 active torsions:
REMARK  status: ('A' for Active; 'I' for Inactive)
REMARK    1  A    between atoms: C_9  and  O_10 
REMARK    2  A    between atoms: O_10  and  C_11 
ROOT
ATOM      1  O           0     111.978 165.599 140.796  0.00  0.00    -0.287 OA
ATOM      2  C           0     110.900 166.151 140.814  0.00  0.00     0.194 C 
ATOM      3  C           0     110.540 166.854 142.044  0.00  0.00     0.027 C 
ATOM      4  C           0     110.033 168.152 141.924  0.00  0.00     0.016 C 
ATOM      5  C           0     109.651 168.895 143.026  0.00  0.00     0.002 C 
ATOM      6  C           0     109.811 168.402 144.284  0.00  0.00     0.012 C 
ATOM      7  C           0     110.380 167.129 144.465  0.00  0.00    -0.021 C 
ATOM      8  C           0     110.674 166.691 145.769  0.00  0.00     0.049 C 
ATOM      9  C           0     111.175 165.427 145.977  0.00  0.00     0.077 C 
ATOM     10  C           0     111.363 164.568 144.900  0.00  0.00     0.053 C 
ATOM     11  C           0     111.076 164.971 143.603  0.00  0.00     0.024 C 
ATOM     12  C           0     111.228 164.015 142.509  0.00  0.00     0.133 C 
ATOM     13  N           0     112.000 162.975 142.297  0.00  0.00    -0.283 N 
ATOM     14  HN          0     112.552 162.496 143.009  1.00  0.00     0.188 HD
ATOM     15  N           0     111.952 162.649 141.041  0.00  0.00    -0.283 N 
ATOM     16  HN          0     112.519 161.925 140.599  1.00  0.00     0.188 HD
ATOM     17  C           0     111.070 163.387 140.432  0.00  0.00     0.133 C 
ATOM     18  N           0     110.338 164.019 141.431  0.00  0.00    -0.325 N 
ATOM     19  HN          0     109.444 164.391 141.392  0.00  0.00     0.169 HD
ATOM     20  C           0     110.803 163.696 139.022  0.00  0.00     0.022 C 
ATOM     21  C           0     111.162 162.819 138.010  0.00  0.00     0.023 C 
ATOM     22  C           0     110.821 163.086 136.691  0.00  0.00    -0.060 C 
ATOM     23  C           0     111.257 162.143 135.601  0.00  0.00     0.048 C 
ATOM     24  C           0     110.078 164.186 136.376  0.00  0.00     0.019 C 
ATOM     25  C           0     109.676 165.075 137.385  0.00  0.00    -0.024 C 
ATOM     26  C           0     108.733 166.086 137.132  0.00  0.00     0.012 C 
ATOM     27  C           0     108.450 166.998 138.103  0.00  0.00     0.002 C 
ATOM     28  C           0     109.118 166.985 139.318  0.00  0.00     0.016 C 
ATOM     29  C           0     110.089 166.018 139.601  0.00  0.00     0.027 C 
ATOM     30  C           0     110.207 164.938 138.694  0.00  0.00     0.002 C 
ATOM     31  C           0     110.666 166.303 143.346  0.00  0.00     0.003 C 
ENDROOT
BRANCH   9  32
ATOM     32  O           0     111.478 165.015 147.235  0.00  0.00    -0.311 OA
BRANCH  32  33
ATOM     33  C           0     110.397 164.334 147.697  0.00  0.00     0.076 A 
ATOM     34  C           0     110.473 162.962 147.896  0.00  0.00     0.037 A 
ATOM     35  C           0     109.375 162.273 148.372  0.00  0.00     0.003 A 
ATOM     36  C           0     108.197 162.946 148.638  0.00  0.00     0.000 A 
ATOM     37  C           0     108.117 164.311 148.435  0.00  0.00     0.003 A 
ATOM     38  C           0     109.214 165.007 147.965  0.00  0.00     0.037 A 
ENDBRANCH  32  33
ENDBRANCH   9  32
TORSDOF 2
ENDMDL
MODEL 3
REMARK VINA RESULT:      -8.4      1.847      8.618
REMARK  2 active torsions:
REMARK  status: ('A' for Active; 'I' for Inactive)
REMARK    1  A    between atoms: C_9  and  O_10 
REMARK    2  A    between atoms: O_10  and  C_11 
ROOT
ATOM      1  O           0     110.433 175.949 140.616  0.00  0.00    -0.287 OA
ATOM      2  C           0     110.837 174.832 140.847  0.00  0.00     0.194 C 
ATOM      3  C           0     111.262 174.554 142.217  0.00  0.00     0.027 C 
ATOM      4  C           0     110.793 173.381 142.816  0.00  0.00     0.016 C 
ATOM      5  C           0     111.149 173.021 144.104  0.00  0.00     0.002 C 
ATOM      6  C           0     111.931 173.838 144.860  0.00  0.00     0.012 C 
ATOM      7  C           0     112.375 175.063 144.331  0.00  0.00    -0.021 C 
ATOM      8  C           0     113.060 175.961 145.168  0.00  0.00     0.049 C 
ATOM      9  C           0     113.555 177.139 144.660  0.00  0.00     0.077 C 
ATOM     10  C           0     113.407 177.430 143.308  0.00  0.00     0.053 C 
ATOM     11  C           0     112.741 176.559 142.457  0.00  0.00     0.024 C 
ATOM     12  C           0     112.664 176.874 141.032  0.00  0.00     0.133 C 
ATOM     13  N           0     112.650 177.986 140.336  0.00  0.00    -0.283 N 
ATOM     14  HN          0     112.902 178.908 140.692  1.00  0.00     0.188 HD
ATOM     15  N           0     112.265 177.732 139.122  0.00  0.00    -0.283 N 
ATOM     16  HN          0     112.094 178.432 138.400  1.00  0.00     0.188 HD
ATOM     17  C           0     112.132 176.446 138.967  0.00  0.00     0.133 C 
ATOM     18  N           0     112.732 175.858 140.074  0.00  0.00    -0.325 N 
ATOM     19  HN          0     113.091 174.964 140.173  0.00  0.00     0.169 HD
ATOM     20  C           0     111.452 175.608 137.971  0.00  0.00     0.022 C 
ATOM     21  C           0     111.232 176.057 136.678  0.00  0.00     0.023 C 
ATOM     22  C           0     110.670 175.219 135.726  0.00  0.00    -0.060 C 
ATOM     23  C           0     110.400 175.739 134.339  0.00  0.00     0.048 C 
ATOM     24  C           0     110.377 173.921 136.030  0.00  0.00     0.019 C 
ATOM     25  C           0     110.616 173.433 137.325  0.00  0.00    -0.024 C 
ATOM     26  C           0     110.537 172.058 137.610  0.00  0.00     0.012 C 
ATOM     27  C           0     110.666 171.632 138.897  0.00  0.00     0.002 C 
ATOM     28  C           0     110.816 172.532 139.941  0.00  0.00     0.016 C 
ATOM     29  C           0     110.867 173.911 139.707  0.00  0.00     0.027 C 
ATOM     30  C           0     110.973 174.333 138.361  0.00  0.00     0.002 C 
ATOM     31  C           0     112.122 175.393 142.973  0.00  0.00     0.003 C 
ENDROOT
BRANCH   9  32
ATOM     32  O           0     114.196 178.015 145.477  0.00  0.00    -0.311 OA
BRANCH  32  33
ATOM     33  C           0     113.263 178.509 146.333  0.00  0.00     0.076 A 
ATOM     34  C           0     112.171 179.210 145.840  0.00  0.00     0.037 A 
ATOM     35  C           0     111.220 179.705 146.711  0.00  0.00     0.003 A 
ATOM     36  C           0     111.361 179.513 148.073  0.00  0.00     0.000 A 
ATOM     37  C           0     112.451 178.819 148.566  0.00  0.00     0.003 A 
ATOM     38  C           0     113.402 178.317 147.699  0.00  0.00     0.037 A 
ENDBRANCH  32  33
ENDBRANCH   9  32
TORSDOF 2
ENDMDL
MODEL 4
REMARK VINA RESULT:      -8.3      3.346      7.340
REMARK  2 active torsions:
REMARK  status: ('A' for Active; 'I' for Inactive)
REMARK    1  A    between atoms: C_9  and  O_10 
REMARK    2  A    between atoms: O_10  and  C_11 
ROOT
ATOM      1  O           0     111.516 170.280 137.781  0.00  0.00    -0.287 OA
ATOM      2  C           0     110.494 170.279 137.131  0.00  0.00     0.194 C 
ATOM      3  C           0     110.274 171.421 136.246  0.00  0.00     0.027 C 
ATOM      4  C           0     109.877 171.155 134.931  0.00  0.00     0.016 C 
ATOM      5  C           0     109.630 172.166 134.021  0.00  0.00     0.002 C 
ATOM      6  C           0     109.825 173.469 134.362  0.00  0.00     0.012 C 
ATOM      7  C           0     110.289 173.789 135.649  0.00  0.00    -0.021 C 
ATOM      8  C           0     110.624 175.123 135.943  0.00  0.00     0.049 C 
ATOM      9  C           0     111.024 175.472 137.212  0.00  0.00     0.077 C 
ATOM     10  C           0     111.069 174.511 138.216  0.00  0.00     0.053 C 
ATOM     11  C           0     110.738 173.188 137.957  0.00  0.00     0.024 C 
ATOM     12  C           0     110.737 172.225 139.054  0.00  0.00     0.133 C 
ATOM     13  N           0     111.401 172.115 140.182  0.00  0.00    -0.283 N 
ATOM     14  HN          0     111.951 172.856 140.616  1.00  0.00     0.188 HD
ATOM     15  N           0     111.246 170.917 140.660  0.00  0.00    -0.283 N 
ATOM     16  HN          0     111.719 170.548 141.485  1.00  0.00     0.188 HD
ATOM     17  C           0     110.396 170.260 139.925  0.00  0.00     0.133 C 
ATOM     18  N           0     109.786 171.201 139.104  0.00  0.00    -0.325 N 
ATOM     19  HN          0     108.928 171.159 138.656  0.00  0.00     0.169 HD
ATOM     20  C           0     110.070 168.837 139.775  0.00  0.00     0.022 C 
ATOM     21  C           0     110.287 167.934 140.804  0.00  0.00     0.023 C 
ATOM     22  C           0     109.890 166.610 140.677  0.00  0.00    -0.060 C 
ATOM     23  C           0     110.174 165.635 141.789  0.00  0.00     0.048 C 
ATOM     24  C           0     109.229 166.188 139.561  0.00  0.00     0.019 C 
ATOM     25  C           0     108.970 167.089 138.515  0.00  0.00    -0.024 C 
ATOM     26  C           0     108.106 166.751 137.460  0.00  0.00     0.012 C 
ATOM     27  C           0     107.965 167.606 136.408  0.00  0.00     0.002 C 
ATOM     28  C           0     108.703 168.776 136.330  0.00  0.00     0.016 C 
ATOM     29  C           0     109.601 169.137 137.341  0.00  0.00     0.027 C 
ATOM     30  C           0     109.567 168.376 138.534  0.00  0.00     0.002 C 
ATOM     31  C           0     110.432 172.777 136.635  0.00  0.00     0.003 C 
ENDROOT
BRANCH   9  32
ATOM     32  O           0     111.367 176.758 137.486  0.00  0.00    -0.311 OA
BRANCH  32  33
ATOM     33  C           0     111.922 176.759 138.727  0.00  0.00     0.076 A 
ATOM     34  C           0     111.109 176.724 139.851  0.00  0.00     0.037 A 
ATOM     35  C           0     111.675 176.719 141.111  0.00  0.00     0.003 A 
ATOM     36  C           0     113.050 176.759 141.253  0.00  0.00     0.000 A 
ATOM     37  C           0     113.861 176.799 140.134  0.00  0.00     0.003 A 
ATOM     38  C           0     113.301 176.799 138.872  0.00  0.00     0.037 A 
ENDBRANCH  32  33
ENDBRANCH   9  32
TORSDOF 2
ENDMDL
MODEL 5
REMARK VINA RESULT:      -8.1      7.457      8.824
REMARK  2 active torsions:
REMARK  status: ('A' for Active; 'I' for Inactive)
REMARK    1  A    between atoms: C_9  and  O_10 
REMARK    2  A    between atoms: O_10  and  C_11 
ROOT
ATOM      1  O           0     111.084 167.399 141.492  0.00  0.00    -0.287 OA
ATOM      2  C           0     110.976 166.199 141.613  0.00  0.00     0.194 C 
ATOM      3  C           0     110.874 165.418 140.381  0.00  0.00     0.027 C 
ATOM      4  C           0     111.683 164.283 140.265  0.00  0.00     0.016 C 
ATOM      5  C           0     111.651 163.471 139.146  0.00  0.00     0.002 C 
ATOM      6  C           0     110.862 163.786 138.083  0.00  0.00     0.012 C 
ATOM      7  C           0     110.079 164.954 138.119  0.00  0.00    -0.021 C 
ATOM      8  C           0     109.381 165.345 136.963  0.00  0.00     0.049 C 
ATOM      9  C           0     108.563 166.450 136.990  0.00  0.00     0.077 C 
ATOM     10  C           0     108.399 167.165 138.172  0.00  0.00     0.053 C 
ATOM     11  C           0     109.070 166.798 139.330  0.00  0.00     0.024 C 
ATOM     12  C           0     108.820 167.538 140.564  0.00  0.00     0.133 C 
ATOM     13  N           0     108.471 168.773 140.841  0.00  0.00    -0.283 N 
ATOM     14  HN          0     108.096 169.444 140.171  1.00  0.00     0.188 HD
ATOM     15  N           0     108.675 169.008 142.102  0.00  0.00    -0.283 N 
ATOM     16  HN          0     108.560 169.913 142.558  1.00  0.00     0.188 HD
ATOM     17  C           0     109.049 167.911 142.695  0.00  0.00     0.133 C 
ATOM     18  N           0     108.798 166.881 141.798  0.00  0.00    -0.325 N 
ATOM     19  HN          0     108.662 165.937 141.971  0.00  0.00     0.169 HD
ATOM     20  C           0     109.701 167.622 143.978  0.00  0.00     0.022 C 
ATOM     21  C           0     109.583 168.483 145.059  0.00  0.00     0.023 C 
ATOM     22  C           0     110.130 168.149 146.290  0.00  0.00    -0.060 C 
ATOM     23  C           0     110.028 169.117 147.440  0.00  0.00     0.048 C 
ATOM     24  C           0     110.742 166.944 146.474  0.00  0.00     0.019 C 
ATOM     25  C           0     110.851 166.041 145.404  0.00  0.00    -0.024 C 
ATOM     26  C           0     111.271 164.716 145.609  0.00  0.00     0.012 C 
ATOM     27  C           0     111.470 163.901 144.536  0.00  0.00     0.002 C 
ATOM     28  C           0     111.323 164.371 143.240  0.00  0.00     0.016 C 
ATOM     29  C           0     110.938 165.692 142.987  0.00  0.00     0.027 C 
ATOM     30  C           0     110.503 166.460 144.094  0.00  0.00     0.002 C 
ATOM     31  C           0     110.006 165.734 139.304  0.00  0.00     0.003 C 
ENDROOT
BRANCH   9  32
ATOM     32  O           0     107.908 166.838 135.865  0.00  0.00    -0.311 OA
BRANCH  32  33
ATOM     33  C           0     108.858 167.097 134.928  0.00  0.00     0.076 A 
ATOM     34  C           0     109.727 168.166 135.097  0.00  0.00     0.037 A 
ATOM     35  C           0     110.696 168.423 134.147  0.00  0.00     0.003 A 
ATOM     36  C           0     110.792 167.624 133.023  0.00  0.00     0.000 A 
ATOM     37  C           0     109.924 166.563 132.849  0.00  0.00     0.003 A 
ATOM     38  C           0     108.957 166.297 133.800  0.00  0.00     0.037 A 
ENDBRANCH  32  33
ENDBRANCH   9  32
TORSDOF 2
ENDMDL
MODEL 6
REMARK VINA RESULT:      -8.1      9.360     13.513
REMARK  2 active torsions:
REMARK  status: ('A' for Active; 'I' for Inactive)
REMARK    1  A    between atoms: C_9  and  O_10 
REMARK    2  A    between atoms: O_10  and  C_11 
ROOT
ATOM      1  O           0     109.485 164.137 141.349  0.00  0.00    -0.287 OA
ATOM      2  C           0     110.609 163.745 141.133  0.00  0.00     0.194 C 
ATOM      3  C           0     111.375 163.272 142.285  0.00  0.00     0.027 C 
ATOM      4  C           0     112.046 162.050 142.160  0.00  0.00     0.016 C 
ATOM      5  C           0     112.808 161.524 143.186  0.00  0.00     0.002 C 
ATOM      6  C           0     112.884 162.157 144.388  0.00  0.00     0.012 C 
ATOM      7  C           0     112.175 163.353 144.591  0.00  0.00    -0.021 C 
ATOM      8  C           0     112.144 163.921 145.877  0.00  0.00     0.049 C 
ATOM      9  C           0     111.507 165.121 146.089  0.00  0.00     0.077 C 
ATOM     10  C           0     110.917 165.792 145.023  0.00  0.00     0.053 C 
ATOM     11  C           0     110.937 165.259 143.742  0.00  0.00     0.024 C 
ATOM     12  C           0     110.361 166.027 142.640  0.00  0.00     0.133 C 
ATOM     13  N           0     109.398 166.914 142.543  0.00  0.00    -0.283 N 
ATOM     14  HN          0     108.968 167.405 143.326  1.00  0.00     0.188 HD
ATOM     15  N           0     109.078 167.070 141.294  0.00  0.00    -0.283 N 
ATOM     16  HN          0     108.307 167.643 140.951  1.00  0.00     0.188 HD
ATOM     17  C           0     109.892 166.382 140.546  0.00  0.00     0.133 C 
ATOM     18  N           0     110.943 165.998 141.370  0.00  0.00    -0.325 N 
ATOM     19  HN          0     111.849 165.749 141.131  0.00  0.00     0.169 HD
ATOM     20  C           0     109.849 165.923 139.153  0.00  0.00     0.022 C 
ATOM     21  C           0     109.109 166.597 138.192  0.00  0.00     0.023 C 
ATOM     22  C           0     109.151 166.202 136.862  0.00  0.00    -0.060 C 
ATOM     23  C           0     108.308 166.920 135.843  0.00  0.00     0.048 C 
ATOM     24  C           0     109.966 165.181 136.468  0.00  0.00     0.019 C 
ATOM     25  C           0     110.748 164.500 137.415  0.00  0.00    -0.024 C 
ATOM     26  C           0     111.754 163.602 137.019  0.00  0.00     0.012 C 
ATOM     27  C           0     112.416 162.878 137.963  0.00  0.00     0.002 C 
ATOM     28  C           0     112.078 162.965 139.304  0.00  0.00     0.016 C 
ATOM     29  C           0     111.061 163.821 139.741  0.00  0.00     0.027 C 
ATOM     30  C           0     110.543 164.740 138.798  0.00  0.00     0.002 C 
ATOM     31  C           0     111.486 163.972 143.514  0.00  0.00     0.003 C 
ENDROOT
BRANCH   9  32
ATOM     32  O           0     111.461 165.655 147.337  0.00  0.00    -0.311 OA
BRANCH  32  33
ATOM     33  C           0     110.176 165.538 147.766  0.00  0.00     0.076 A 
ATOM     34  C           0     109.391 166.671 147.925  0.00  0.00     0.037 A 
ATOM     35  C           0     108.084 166.549 148.354  0.00  0.00     0.003 A 
ATOM     36  C           0     107.562 165.300 148.638  0.00  0.00     0.000 A 
ATOM     37  C           0     108.345 164.171 148.486  0.00  0.00     0.003 A 
ATOM     38  C           0     109.650 164.286 148.050  0.00  0.00     0.037 A 
ENDBRANCH  32  33
ENDBRANCH   9  32
TORSDOF 2
ENDMDL
MODEL 7
REMARK VINA RESULT:      -7.9      4.222      8.154
REMARK  2 active torsions:
REMARK  status: ('A' for Active; 'I' for Inactive)
REMARK    1  A    between atoms: C_9  and  O_10 
REMARK    2  A    between atoms: O_10  and  C_11 
ROOT
ATOM      1  O           0     111.921 171.869 139.735  0.00  0.00    -0.287 OA
ATOM      2  C           0     111.399 172.559 140.583  0.00  0.00     0.194 C 
ATOM      3  C           0     111.011 171.894 141.826  0.00  0.00     0.027 C 
ATOM      4  C           0     111.367 172.512 143.029  0.00  0.00     0.016 C 
ATOM      5  C           0     111.035 171.971 144.258  0.00  0.00     0.002 C 
ATOM      6  C           0     110.393 170.775 144.338  0.00  0.00     0.012 C 
ATOM      7  C           0     110.072 170.077 143.160  0.00  0.00    -0.021 C 
ATOM      8  C           0     109.540 168.779 143.257  0.00  0.00     0.049 C 
ATOM      9  C           0     109.163 168.099 142.123  0.00  0.00     0.077 C 
ATOM     10  C           0     109.278 168.707 140.877  0.00  0.00     0.053 C 
ATOM     11  C           0     109.793 169.990 140.751  0.00  0.00     0.024 C 
ATOM     12  C           0     109.837 170.615 139.432  0.00  0.00     0.133 C 
ATOM     13  N           0     109.949 170.163 138.204  0.00  0.00    -0.283 N 
ATOM     14  HN          0     109.825 169.192 137.920  1.00  0.00     0.188 HD
ATOM     15  N           0     110.241 171.146 137.407  0.00  0.00    -0.283 N 
ATOM     16  HN          0     110.458 171.054 136.414  1.00  0.00     0.188 HD
ATOM     17  C           0     110.214 172.267 138.067  0.00  0.00     0.133 C 
ATOM     18  N           0     109.603 171.985 139.284  0.00  0.00    -0.325 N 
ATOM     19  HN          0     109.147 172.584 139.893  0.00  0.00     0.169 HD
ATOM     20  C           0     110.740 173.612 137.808  0.00  0.00     0.022 C 
ATOM     21  C           0     110.948 174.070 136.515  0.00  0.00     0.023 C 
ATOM     22  C           0     111.360 175.375 136.286  0.00  0.00    -0.060 C 
ATOM     23  C           0     111.622 175.839 134.877  0.00  0.00     0.048 C 
ATOM     24  C           0     111.512 176.247 137.324  0.00  0.00     0.019 C 
ATOM     25  C           0     111.280 175.818 138.641  0.00  0.00    -0.024 C 
ATOM     26  C           0     111.211 176.736 139.704  0.00  0.00     0.012 C 
ATOM     27  C           0     111.095 176.275 140.980  0.00  0.00     0.002 C 
ATOM     28  C           0     111.104 174.918 141.259  0.00  0.00     0.016 C 
ATOM     29  C           0     111.205 173.969 140.235  0.00  0.00     0.027 C 
ATOM     30  C           0     111.083 174.439 138.906  0.00  0.00     0.002 C 
ATOM     31  C           0     110.295 170.671 141.889  0.00  0.00     0.003 C 
ENDROOT
BRANCH   9  32
ATOM     32  O           0     108.670 166.837 142.219  0.00  0.00    -0.311 OA
BRANCH  32  33
ATOM     33  C           0     109.733 165.994 142.133  0.00  0.00     0.076 A 
ATOM     34  C           0     110.551 165.792 143.236  0.00  0.00     0.037 A 
ATOM     35  C           0     111.625 164.929 143.147  0.00  0.00     0.003 A 
ATOM     36  C           0     111.893 164.275 141.959  0.00  0.00     0.000 A 
ATOM     37  C           0     111.083 164.479 140.858  0.00  0.00     0.003 A 
ATOM     38  C           0     110.003 165.336 140.942  0.00  0.00     0.037 A 
ENDBRANCH  32  33
ENDBRANCH   9  32
TORSDOF 2
ENDMDL
MODEL 8
REMARK VINA RESULT:      -7.9      7.600      9.781
REMARK  2 active torsions:
REMARK  status: ('A' for Active; 'I' for Inactive)
REMARK    1  A    between atoms: C_9  and  O_10 
REMARK    2  A    between atoms: O_10  and  C_11 
ROOT
ATOM      1  O           0     112.018 165.646 140.724  0.00  0.00    -0.287 OA
ATOM      2  C           0     111.500 164.574 140.505  0.00  0.00     0.194 C 
ATOM      3  C           0     110.906 164.387 139.183  0.00  0.00     0.027 C 
ATOM      4  C           0     111.208 163.205 138.498  0.00  0.00     0.016 C 
ATOM      5  C           0     110.686 162.927 137.248  0.00  0.00     0.002 C 
ATOM      6  C           0     109.896 163.833 136.610  0.00  0.00     0.012 C 
ATOM      7  C           0     109.616 165.066 137.224  0.00  0.00    -0.021 C 
ATOM      8  C           0     108.921 166.049 136.496  0.00  0.00     0.049 C 
ATOM      9  C           0     108.584 167.241 137.094  0.00  0.00     0.077 C 
ATOM     10  C           0     108.902 167.465 138.429  0.00  0.00     0.053 C 
ATOM     11  C           0     109.582 166.510 139.173  0.00  0.00     0.024 C 
ATOM     12  C           0     109.839 166.760 140.589  0.00  0.00     0.133 C 
ATOM     13  N           0     110.021 167.839 141.314  0.00  0.00    -0.283 N 
ATOM     14  HN          0     109.809 168.791 141.017  1.00  0.00     0.188 HD
ATOM     15  N           0     110.514 167.506 142.469  0.00  0.00    -0.283 N 
ATOM     16  HN          0     110.820 168.161 143.189  1.00  0.00     0.188 HD
ATOM     17  C           0     110.556 166.209 142.568  0.00  0.00     0.133 C 
ATOM     18  N           0     109.792 165.715 141.517  0.00  0.00    -0.325 N 
ATOM     19  HN          0     109.352 164.856 141.430  0.00  0.00     0.169 HD
ATOM     20  C           0     111.268 165.280 143.454  0.00  0.00     0.022 C 
ATOM     21  C           0     111.664 165.658 144.728  0.00  0.00     0.023 C 
ATOM     22  C           0     112.256 164.740 145.585  0.00  0.00    -0.060 C 
ATOM     23  C           0     112.717 165.181 146.949  0.00  0.00     0.048 C 
ATOM     24  C           0     112.405 163.437 145.209  0.00  0.00     0.019 C 
ATOM     25  C           0     111.986 163.021 143.935  0.00  0.00    -0.024 C 
ATOM     26  C           0     111.920 161.658 143.599  0.00  0.00     0.012 C 
ATOM     27  C           0     111.616 161.295 142.322  0.00  0.00     0.002 C 
ATOM     28  C           0     111.428 162.246 141.331  0.00  0.00     0.016 C 
ATOM     29  C           0     111.518 163.613 141.611  0.00  0.00     0.027 C 
ATOM     30  C           0     111.595 163.988 142.974  0.00  0.00     0.002 C 
ATOM     31  C           0     110.042 165.320 138.554  0.00  0.00     0.003 C 
ENDROOT
BRANCH   9  32
ATOM     32  O           0     107.932 168.197 136.382  0.00  0.00    -0.311 OA
BRANCH  32  33
ATOM     33  C           0     108.875 168.865 135.666  0.00  0.00     0.076 A 
ATOM     34  C           0     109.664 169.826 136.283  0.00  0.00     0.037 A 
ATOM     35  C           0     110.627 170.497 135.555  0.00  0.00     0.003 A 
ATOM     36  C           0     110.797 170.222 134.211  0.00  0.00     0.000 A 
ATOM     37  C           0     110.009 169.268 133.594  0.00  0.00     0.003 A 
ATOM     38  C           0     109.049 168.589 134.318  0.00  0.00     0.037 A 
ENDBRANCH  32  33
ENDBRANCH   9  32
TORSDOF 2
ENDMDL
MODEL 9
REMARK VINA RESULT:      -7.8      2.356      8.932
REMARK  2 active torsions:
REMARK  status: ('A' for Active; 'I' for Inactive)
REMARK    1  A    between atoms: C_9  and  O_10 
REMARK    2  A    between atoms: O_10  and  C_11 
ROOT
ATOM      1  O           0     112.461 173.243 139.127  0.00  0.00    -0.287 OA
ATOM      2  C           0     112.068 174.362 138.883  0.00  0.00     0.194 C 
ATOM      3  C           0     112.307 175.382 139.902  0.00  0.00     0.027 C 
ATOM      4  C           0     112.841 176.605 139.482  0.00  0.00     0.016 C 
ATOM      5  C           0     113.091 177.639 140.366  0.00  0.00     0.002 C 
ATOM      6  C           0     112.876 177.477 141.700  0.00  0.00     0.012 C 
ATOM      7  C           0     112.405 176.244 142.184  0.00  0.00    -0.021 C 
ATOM      8  C           0     112.325 176.042 143.574  0.00  0.00     0.049 C 
ATOM      9  C           0     111.812 174.867 144.073  0.00  0.00     0.077 C 
ATOM     10  C           0     111.341 173.889 143.203  0.00  0.00     0.053 C 
ATOM     11  C           0     111.402 174.064 141.828  0.00  0.00     0.024 C 
ATOM     12  C           0     110.839 173.039 140.952  0.00  0.00     0.133 C 
ATOM     13  N           0     110.672 171.741 141.046  0.00  0.00    -0.283 N 
ATOM     14  HN          0     110.744 171.198 141.907  1.00  0.00     0.188 HD
ATOM     15  N           0     110.400 171.253 139.874  0.00  0.00    -0.283 N 
ATOM     16  HN          0     110.302 170.262 139.657  1.00  0.00     0.188 HD
ATOM     17  C           0     110.270 172.225 139.017  0.00  0.00     0.133 C 
ATOM     18  N           0     110.190 173.393 139.765  0.00  0.00    -0.325 N 
ATOM     19  HN          0     109.804 174.249 139.526  0.00  0.00     0.169 HD
ATOM     20  C           0     110.279 172.295 137.551  0.00  0.00     0.022 C 
ATOM     21  C           0     109.920 171.204 136.773  0.00  0.00     0.023 C 
ATOM     22  C           0     109.848 171.315 135.392  0.00  0.00    -0.060 C 
ATOM     23  C           0     109.498 170.107 134.563  0.00  0.00     0.048 C 
ATOM     24  C           0     110.072 172.514 134.780  0.00  0.00     0.019 C 
ATOM     25  C           0     110.409 173.641 135.545  0.00  0.00    -0.024 C 
ATOM     26  C           0     110.428 174.927 134.978  0.00  0.00     0.012 C 
ATOM     27  C           0     110.865 175.981 135.721  0.00  0.00     0.002 C 
ATOM     28  C           0     111.349 175.803 137.008  0.00  0.00     0.016 C 
ATOM     29  C           0     111.380 174.536 137.601  0.00  0.00     0.027 C 
ATOM     30  C           0     110.708 173.490 136.924  0.00  0.00     0.002 C 
ATOM     31  C           0     112.028 175.214 141.283  0.00  0.00     0.003 C 
ENDROOT
BRANCH   9  32
ATOM     32  O           0     111.756 174.666 145.415  0.00  0.00    -0.311 OA
BRANCH  32  33
ATOM     33  C           0     110.637 175.296 145.860  0.00  0.00     0.076 A 
ATOM     34  C           0     110.605 176.681 145.943  0.00  0.00     0.037 A 
ATOM     35  C           0     109.464 177.318 146.389  0.00  0.00     0.003 A 
ATOM     36  C           0     108.358 176.578 146.763  0.00  0.00     0.000 A 
ATOM     37  C           0     108.390 175.198 146.686  0.00  0.00     0.003 A 
ATOM     38  C           0     109.526 174.555 146.235  0.00  0.00     0.037 A 
ENDBRANCH  32  33
ENDBRANCH   9  32
TORSDOF 2
ENDMDL
