MODEL 1
REMARK VINA RESULT:      -8.0      0.000      0.000
REMARK  3 active torsions:
REMARK  status: ('A' for Active; 'I' for Inactive)
REMARK    1  A    between atoms: C_9  and  O_10 
REMARK    2  A    between atoms: O_10  and  C_11 
REMARK    3  A    between atoms: C_25  and  C_26 
ROOT
ATOM      1  O           0     110.776 176.073 140.085  0.00  0.00    -0.287 OA
ATOM      2  C           0     110.949 174.897 140.314  0.00  0.00     0.196 C 
ATOM      3  C           0     110.922 173.989 139.170  0.00  0.00     0.039 C 
ATOM      4  C           0     110.155 172.825 139.282  0.00  0.00     0.003 C 
ATOM      5  C           0     110.076 171.896 138.261  0.00  0.00     0.000 C 
ATOM      6  C           0     110.704 172.118 137.074  0.00  0.00     0.000 C 
ATOM      7  C           0     111.434 173.304 136.882  0.00  0.00     0.002 C 
ATOM      8  C           0     111.958 173.586 135.609  0.00  0.00     0.024 C 
ATOM      9  C           0     112.726 174.709 135.410  0.00  0.00     0.094 C 
ATOM     10  C           0     113.014 175.552 136.479  0.00  0.00     0.027 C 
ATOM     11  C           0     112.516 175.294 137.748  0.00  0.00     0.035 C 
ATOM     12  C           0     112.894 176.170 138.854  0.00  0.00     0.133 C 
ATOM     13  N           0     113.225 177.436 138.951  0.00  0.00    -0.283 N 
ATOM     14  HN          0     113.480 178.040 138.169  1.00  0.00     0.188 HD
ATOM     15  N           0     113.177 177.804 140.195  0.00  0.00    -0.283 N 
ATOM     16  HN          0     113.313 178.756 140.533  1.00  0.00     0.188 HD
ATOM     17  C           0     112.929 176.767 140.945  0.00  0.00     0.133 C 
ATOM     18  N           0     113.104 175.652 140.135  0.00  0.00    -0.325 N 
ATOM     19  HN          0     113.301 174.737 140.387  0.00  0.00     0.169 HD
ATOM     20  C           0     112.462 176.603 142.327  0.00  0.00     0.033 C 
ATOM     21  C           0     112.683 177.580 143.286  0.00  0.00    -0.001 C 
ATOM     22  C           0     112.315 177.368 144.608  0.00  0.00    -0.022 C 
ATOM     23  C           0     111.782 176.174 144.995  0.00  0.00    -0.004 C 
ATOM     24  C           0     111.573 175.158 144.050  0.00  0.00    -0.000 C 
ATOM     25  C           0     111.238 173.851 144.447  0.00  0.00    -0.000 C 
ATOM     26  C           0     110.935 172.919 143.500  0.00  0.00     0.000 C 
ATOM     27  C           0     110.895 173.249 142.154  0.00  0.00     0.003 C 
ATOM     28  C           0     111.189 174.544 141.716  0.00  0.00     0.039 C 
ATOM     29  C           0     111.730 175.441 142.668  0.00  0.00     0.006 C 
ATOM     30  C           0     111.629 174.209 137.959  0.00  0.00     0.006 C 
ENDROOT
BRANCH   9  31
ATOM     31  O           0     113.212 174.991 134.173  0.00  0.00    -0.331 OA
BRANCH  31  32
ATOM     32  C           0     112.680 176.264 133.802  0.00  0.00     0.149 C 
ATOM     33  C           0     111.538 176.067 132.802  0.00  0.00     0.035 C 
ENDBRANCH  31  32
ENDBRANCH   9  31
BRANCH  22  34
ATOM     34  C           0     112.526 178.458 145.624  0.00  0.00     0.026 C 
ATOM     35  C           0     111.172 178.923 146.163  0.00  0.00     0.005 C 
ENDBRANCH  22  34
TORSDOF 3
ENDMDL
MODEL 2
REMARK VINA RESULT:      -7.8      1.528      7.327
REMARK  3 active torsions:
REMARK  status: ('A' for Active; 'I' for Inactive)
REMARK    1  A    between atoms: C_9  and  O_10 
REMARK    2  A    between atoms: O_10  and  C_11 
REMARK    3  A    between atoms: C_25  and  C_26 
ROOT
ATOM      1  O           0     113.147 174.883 140.261  0.00  0.00    -0.287 OA
ATOM      2  C           0     112.128 174.234 140.339  0.00  0.00     0.196 C 
ATOM      3  C           0     111.681 173.862 141.679  0.00  0.00     0.039 C 
ATOM      4  C           0     111.308 172.531 141.893  0.00  0.00     0.003 C 
ATOM      5  C           0     110.857 172.083 143.121  0.00  0.00     0.000 C 
ATOM      6  C           0     110.820 172.921 144.192  0.00  0.00     0.000 C 
ATOM      7  C           0     111.247 174.253 144.051  0.00  0.00     0.002 C 
ATOM      8  C           0     111.338 175.068 145.193  0.00  0.00     0.024 C 
ATOM      9  C           0     111.697 176.390 145.072  0.00  0.00     0.094 C 
ATOM     10  C           0     111.939 176.933 143.815  0.00  0.00     0.027 C 
ATOM     11  C           0     111.850 176.154 142.670  0.00  0.00     0.035 C 
ATOM     12  C           0     112.050 176.778 141.364  0.00  0.00     0.133 C 
ATOM     13  N           0     112.748 177.804 140.935  0.00  0.00    -0.283 N 
ATOM     14  HN          0     113.163 178.524 141.527  1.00  0.00     0.188 HD
ATOM     15  N           0     112.828 177.762 139.640  0.00  0.00    -0.283 N 
ATOM     16  HN          0     113.380 178.397 139.063  1.00  0.00     0.188 HD
ATOM     17  C           0     112.096 176.782 139.190  0.00  0.00     0.133 C 
ATOM     18  N           0     111.305 176.370 140.255  0.00  0.00    -0.325 N 
ATOM     19  HN          0     110.459 175.898 140.243  0.00  0.00     0.169 HD
ATOM     20  C           0     112.036 176.064 137.911  0.00  0.00     0.033 C 
ATOM     21  C           0     112.440 176.662 136.727  0.00  0.00    -0.001 C 
ATOM     22  C           0     112.291 175.999 135.516  0.00  0.00    -0.022 C 
ATOM     23  C           0     111.693 174.775 135.465  0.00  0.00    -0.004 C 
ATOM     24  C           0     111.250 174.159 136.646  0.00  0.00    -0.000 C 
ATOM     25  C           0     110.438 173.011 136.610  0.00  0.00    -0.000 C 
ATOM     26  C           0     110.118 172.378 137.773  0.00  0.00     0.000 C 
ATOM     27  C           0     110.626 172.811 138.989  0.00  0.00     0.003 C 
ATOM     28  C           0     111.463 173.927 139.069  0.00  0.00     0.039 C 
ATOM     29  C           0     111.600 174.718 137.903  0.00  0.00     0.006 C 
ATOM     30  C           0     111.595 174.763 142.771  0.00  0.00     0.006 C 
ENDROOT
BRANCH   9  31
ATOM     31  O           0     111.805 177.169 146.180  0.00  0.00    -0.331 OA
BRANCH  31  32
ATOM     32  C           0     111.035 178.346 145.933  0.00  0.00     0.149 C 
ATOM     33  C           0     109.610 178.142 146.453  0.00  0.00     0.035 C 
ENDBRANCH  31  32
ENDBRANCH   9  31
BRANCH  22  34
ATOM     34  C           0     112.774 176.648 134.247  0.00  0.00     0.026 C 
ATOM     35  C           0     112.178 175.919 133.041  0.00  0.00     0.005 C 
ENDBRANCH  22  34
TORSDOF 3
ENDMDL
MODEL 3
REMARK VINA RESULT:      -7.6      9.537     11.395
REMARK  3 active torsions:
REMARK  status: ('A' for Active; 'I' for Inactive)
REMARK    1  A    between atoms: C_9  and  O_10 
REMARK    2  A    between atoms: O_10  and  C_11 
REMARK    3  A    between atoms: C_25  and  C_26 
ROOT
ATOM      1  O           0     112.055 165.255 140.172  0.00  0.00    -0.287 OA
ATOM      2  C           0     110.926 165.562 139.860  0.00  0.00     0.196 C 
ATOM      3  C           0     110.515 165.267 138.490  0.00  0.00     0.039 C 
ATOM      4  C           0     109.872 166.280 137.772  0.00  0.00     0.003 C 
ATOM      5  C           0     109.431 166.096 136.475  0.00  0.00     0.000 C 
ATOM      6  C           0     109.667 164.924 135.825  0.00  0.00     0.000 C 
ATOM      7  C           0     110.369 163.894 136.475  0.00  0.00     0.002 C 
ATOM      8  C           0     110.730 162.746 135.748  0.00  0.00     0.024 C 
ATOM      9  C           0     111.364 161.701 136.377  0.00  0.00     0.094 C 
ATOM     10  C           0     111.621 161.763 137.743  0.00  0.00     0.027 C 
ATOM     11  C           0     111.270 162.881 138.486  0.00  0.00     0.035 C 
ATOM     12  C           0     111.500 162.879 139.929  0.00  0.00     0.133 C 
ATOM     13  N           0     112.373 162.298 140.718  0.00  0.00    -0.283 N 
ATOM     14  HN          0     112.984 161.525 140.453  1.00  0.00     0.188 HD
ATOM     15  N           0     112.339 162.858 141.889  0.00  0.00    -0.283 N 
ATOM     16  HN          0     112.972 162.646 142.661  1.00  0.00     0.188 HD
ATOM     17  C           0     111.373 163.732 141.925  0.00  0.00     0.133 C 
ATOM     18  N           0     110.597 163.498 140.797  0.00  0.00    -0.325 N 
ATOM     19  HN          0     109.669 163.723 140.635  0.00  0.00     0.169 HD
ATOM     20  C           0     111.053 164.854 142.816  0.00  0.00     0.033 C 
ATOM     21  C           0     111.485 164.878 144.133  0.00  0.00    -0.001 C 
ATOM     22  C           0     111.096 165.903 144.985  0.00  0.00    -0.022 C 
ATOM     23  C           0     110.238 166.872 144.556  0.00  0.00    -0.004 C 
ATOM     24  C           0     109.763 166.856 143.235  0.00  0.00    -0.000 C 
ATOM     25  C           0     108.715 167.700 142.827  0.00  0.00    -0.000 C 
ATOM     26  C           0     108.356 167.736 141.513  0.00  0.00     0.000 C 
ATOM     27  C           0     109.042 166.999 140.560  0.00  0.00     0.003 C 
ATOM     28  C           0     110.111 166.171 140.915  0.00  0.00     0.039 C 
ATOM     29  C           0     110.328 165.953 142.297  0.00  0.00     0.006 C 
ATOM     30  C           0     110.720 164.019 137.846  0.00  0.00     0.006 C 
ENDROOT
BRANCH   9  31
ATOM     31  O           0     111.731 160.602 135.666  0.00  0.00    -0.331 OA
BRANCH  31  32
ATOM     32  C           0     111.711 160.977 134.288  0.00  0.00     0.149 C 
ATOM     33  C           0     113.045 160.602 133.638  0.00  0.00     0.035 C 
ENDBRANCH  31  32
ENDBRANCH   9  31
BRANCH  22  34
ATOM     34  C           0     111.610 165.932 146.399  0.00  0.00     0.026 C 
ATOM     35  C           0     110.713 165.068 147.287  0.00  0.00     0.005 C 
ENDBRANCH  22  34
TORSDOF 3
ENDMDL
MODEL 4
REMARK VINA RESULT:      -7.6      8.272     11.990
REMARK  3 active torsions:
REMARK  status: ('A' for Active; 'I' for Inactive)
REMARK    1  A    between atoms: C_9  and  O_10 
REMARK    2  A    between atoms: O_10  and  C_11 
REMARK    3  A    between atoms: C_25  and  C_26 
ROOT
ATOM      1  O           0     111.150 166.961 139.147  0.00  0.00    -0.287 OA
ATOM      2  C           0     110.876 165.817 139.431  0.00  0.00     0.196 C 
ATOM      3  C           0     110.988 165.440 140.839  0.00  0.00     0.039 C 
ATOM      4  C           0     111.660 164.252 141.142  0.00  0.00     0.003 C 
ATOM      5  C           0     111.807 163.801 142.440  0.00  0.00     0.000 C 
ATOM      6  C           0     111.347 164.542 143.485  0.00  0.00     0.000 C 
ATOM      7  C           0     110.722 165.778 143.243  0.00  0.00     0.002 C 
ATOM      8  C           0     110.379 166.597 144.333  0.00  0.00     0.024 C 
ATOM      9  C           0     109.714 167.782 144.125  0.00  0.00     0.094 C 
ATOM     10  C           0     109.349 168.158 142.836  0.00  0.00     0.027 C 
ATOM     11  C           0     109.668 167.365 141.742  0.00  0.00     0.035 C 
ATOM     12  C           0     109.211 167.765 140.414  0.00  0.00     0.133 C 
ATOM     13  N           0     108.951 168.917 139.841  0.00  0.00    -0.283 N 
ATOM     14  HN          0     108.834 169.805 140.330  1.00  0.00     0.188 HD
ATOM     15  N           0     108.867 168.753 138.555  0.00  0.00    -0.283 N 
ATOM     16  HN          0     108.750 169.502 137.873  1.00  0.00     0.188 HD
ATOM     17  C           0     108.955 167.484 138.273  0.00  0.00     0.133 C 
ATOM     18  N           0     108.811 166.808 139.478  0.00  0.00    -0.325 N 
ATOM     19  HN          0     108.528 165.896 139.638  0.00  0.00     0.169 HD
ATOM     20  C           0     109.235 166.736 137.041  0.00  0.00     0.033 C 
ATOM     21  C           0     108.959 167.271 135.792  0.00  0.00    -0.001 C 
ATOM     22  C           0     109.146 166.513 134.643  0.00  0.00    -0.022 C 
ATOM     23  C           0     109.550 165.214 134.729  0.00  0.00    -0.004 C 
ATOM     24  C           0     109.811 164.640 135.982  0.00  0.00    -0.000 C 
ATOM     25  C           0     110.011 163.254 136.123  0.00  0.00    -0.000 C 
ATOM     26  C           0     110.370 162.748 137.336  0.00  0.00     0.000 C 
ATOM     27  C           0     110.597 163.579 138.423  0.00  0.00     0.003 C 
ATOM     28  C           0     110.442 164.964 138.321  0.00  0.00     0.039 C 
ATOM     29  C           0     109.845 165.463 137.139  0.00  0.00     0.006 C 
ATOM     30  C           0     110.452 166.197 141.913  0.00  0.00     0.006 C 
ENDROOT
BRANCH   9  31
ATOM     31  O           0     109.404 168.582 145.178  0.00  0.00    -0.331 OA
BRANCH  31  32
ATOM     32  C           0     109.568 167.792 146.358  0.00  0.00     0.149 C 
ATOM     33  C           0     108.318 167.914 147.232  0.00  0.00     0.035 C 
ENDBRANCH  31  32
ENDBRANCH   9  31
BRANCH  22  34
ATOM     34  C           0     108.879 167.126 133.295  0.00  0.00     0.026 C 
ATOM     35  C           0     107.905 166.242 132.515  0.00  0.00     0.005 C 
ENDBRANCH  22  34
TORSDOF 3
ENDMDL
MODEL 5
REMARK VINA RESULT:      -7.5      8.966     12.744
REMARK  3 active torsions:
REMARK  status: ('A' for Active; 'I' for Inactive)
REMARK    1  A    between atoms: C_9  and  O_10 
REMARK    2  A    between atoms: O_10  and  C_11 
REMARK    3  A    between atoms: C_25  and  C_26 
ROOT
ATOM      1  O           0     111.924 165.789 140.732  0.00  0.00    -0.287 OA
ATOM      2  C           0     111.624 164.640 140.496  0.00  0.00     0.196 C 
ATOM      3  C           0     112.018 163.637 141.483  0.00  0.00     0.039 C 
ATOM      4  C           0     112.637 162.474 141.016  0.00  0.00     0.003 C 
ATOM      5  C           0     113.034 161.460 141.868  0.00  0.00     0.000 C 
ATOM      6  C           0     112.886 161.590 143.214  0.00  0.00     0.000 C 
ATOM      7  C           0     112.331 162.768 143.745  0.00  0.00     0.002 C 
ATOM      8  C           0     112.314 162.950 145.138  0.00  0.00     0.024 C 
ATOM      9  C           0     111.723 164.066 145.683  0.00  0.00     0.094 C 
ATOM     10  C           0     111.111 165.002 144.856  0.00  0.00     0.027 C 
ATOM     11  C           0     111.106 164.844 143.478  0.00  0.00     0.035 C 
ATOM     12  C           0     110.397 165.818 142.651  0.00  0.00     0.133 C 
ATOM     13  N           0     110.114 167.094 142.773  0.00  0.00    -0.283 N 
ATOM     14  HN          0     110.187 167.633 143.637  1.00  0.00     0.188 HD
ATOM     15  N           0     109.729 167.565 141.627  0.00  0.00    -0.283 N 
ATOM     16  HN          0     109.526 168.546 141.432  1.00  0.00     0.188 HD
ATOM     17  C           0     109.642 166.592 140.764  0.00  0.00     0.133 C 
ATOM     18  N           0     109.716 165.415 141.499  0.00  0.00    -0.325 N 
ATOM     19  HN          0     109.399 164.529 141.269  0.00  0.00     0.169 HD
ATOM     20  C           0     109.572 166.538 139.299  0.00  0.00     0.033 C 
ATOM     21  C           0     109.068 167.598 138.560  0.00  0.00    -0.001 C 
ATOM     22  C           0     108.925 167.493 137.183  0.00  0.00    -0.022 C 
ATOM     23  C           0     109.226 166.327 136.542  0.00  0.00    -0.004 C 
ATOM     24  C           0     109.712 165.230 137.270  0.00  0.00    -0.000 C 
ATOM     25  C           0     109.820 163.956 136.684  0.00  0.00    -0.000 C 
ATOM     26  C           0     110.398 162.941 137.386  0.00  0.00     0.000 C 
ATOM     27  C           0     110.935 163.154 138.647  0.00  0.00     0.003 C 
ATOM     28  C           0     110.880 164.412 139.255  0.00  0.00     0.039 C 
ATOM     29  C           0     110.076 165.397 138.632  0.00  0.00     0.006 C 
ATOM     30  C           0     111.805 163.766 142.881  0.00  0.00     0.006 C 
ENDROOT
BRANCH   9  31
ATOM     31  O           0     111.728 164.249 147.029  0.00  0.00    -0.331 OA
BRANCH  31  32
ATOM     32  C           0     110.407 164.652 147.395  0.00  0.00     0.149 C 
ATOM     33  C           0     109.699 163.494 148.103  0.00  0.00     0.035 C 
ENDBRANCH  31  32
ENDBRANCH   9  31
BRANCH  22  34
ATOM     34  C           0     108.415 168.669 136.394  0.00  0.00     0.026 C 
ATOM     35  C           0     109.118 168.717 135.036  0.00  0.00     0.005 C 
ENDBRANCH  22  34
TORSDOF 3
ENDMDL
MODEL 6
REMARK VINA RESULT:      -7.4      9.580     13.122
REMARK  3 active torsions:
REMARK  status: ('A' for Active; 'I' for Inactive)
REMARK    1  A    between atoms: C_9  and  O_10 
REMARK    2  A    between atoms: O_10  and  C_11 
REMARK    3  A    between atoms: C_25  and  C_26 
ROOT
ATOM      1  O           0     112.074 165.373 140.207  0.00  0.00    -0.287 OA
ATOM      2  C           0     111.774 164.200 140.182  0.00  0.00     0.196 C 
ATOM      3  C           0     112.087 163.412 141.371  0.00  0.00     0.039 C 
ATOM      4  C           0     112.720 162.179 141.185  0.00  0.00     0.003 C 
ATOM      5  C           0     113.044 161.352 142.245  0.00  0.00     0.000 C 
ATOM      6  C           0     112.808 161.745 143.526  0.00  0.00     0.000 C 
ATOM      7  C           0     112.234 163.005 143.775  0.00  0.00     0.002 C 
ATOM      8  C           0     112.126 163.457 145.102  0.00  0.00     0.024 C 
ATOM      9  C           0     111.515 164.659 145.375  0.00  0.00     0.094 C 
ATOM     10  C           0     110.973 165.414 144.340  0.00  0.00     0.027 C 
ATOM     11  C           0     111.059 164.988 143.022  0.00  0.00     0.035 C 
ATOM     12  C           0     110.421 165.780 141.973  0.00  0.00     0.133 C 
ATOM     13  N           0     110.149 167.055 141.823  0.00  0.00    -0.283 N 
ATOM     14  HN          0     110.170 167.753 142.567  1.00  0.00     0.188 HD
ATOM     15  N           0     109.848 167.291 140.582  0.00  0.00    -0.283 N 
ATOM     16  HN          0     109.672 168.214 140.185  1.00  0.00     0.188 HD
ATOM     17  C           0     109.805 166.168 139.923  0.00  0.00     0.133 C 
ATOM     18  N           0     109.814 165.158 140.878  0.00  0.00    -0.325 N 
ATOM     19  HN          0     109.500 164.245 140.806  0.00  0.00     0.169 HD
ATOM     20  C           0     109.834 165.826 138.496  0.00  0.00     0.033 C 
ATOM     21  C           0     109.395 166.719 137.531  0.00  0.00    -0.001 C 
ATOM     22  C           0     109.345 166.346 136.194  0.00  0.00    -0.022 C 
ATOM     23  C           0     109.672 165.076 135.818  0.00  0.00    -0.004 C 
ATOM     24  C           0     110.093 164.144 136.778  0.00  0.00    -0.000 C 
ATOM     25  C           0     110.221 162.779 136.463  0.00  0.00    -0.000 C 
ATOM     26  C           0     110.737 161.923 137.389  0.00  0.00     0.000 C 
ATOM     27  C           0     111.190 162.380 138.617  0.00  0.00     0.003 C 
ATOM     28  C           0     111.112 163.733 138.961  0.00  0.00     0.039 C 
ATOM     29  C           0     110.366 164.576 138.103  0.00  0.00     0.006 C 
ATOM     30  C           0     111.782 163.813 142.698  0.00  0.00     0.006 C 
ENDROOT
BRANCH   9  31
ATOM     31  O           0     111.432 165.104 146.656  0.00  0.00    -0.331 OA
BRANCH  31  32
ATOM     32  C           0     110.851 164.048 147.422  0.00  0.00     0.149 C 
ATOM     33  C           0     109.454 164.466 147.889  0.00  0.00     0.035 C 
ENDBRANCH  31  32
ENDBRANCH   9  31
BRANCH  22  34
ATOM     34  C           0     108.905 167.343 135.157  0.00  0.00     0.026 C 
ATOM     35  C           0     108.383 166.603 133.924  0.00  0.00     0.005 C 
ENDBRANCH  22  34
TORSDOF 3
ENDMDL
MODEL 7
REMARK VINA RESULT:      -7.3      2.895      5.392
REMARK  3 active torsions:
REMARK  status: ('A' for Active; 'I' for Inactive)
REMARK    1  A    between atoms: C_9  and  O_10 
REMARK    2  A    between atoms: O_10  and  C_11 
REMARK    3  A    between atoms: C_25  and  C_26 
ROOT
ATOM      1  O           0     112.137 172.229 139.713  0.00  0.00    -0.287 OA
ATOM      2  C           0     111.790 173.161 140.402  0.00  0.00     0.196 C 
ATOM      3  C           0     111.985 174.500 139.851  0.00  0.00     0.039 C 
ATOM      4  C           0     112.575 175.462 140.676  0.00  0.00     0.003 C 
ATOM      5  C           0     112.790 176.761 140.254  0.00  0.00     0.000 C 
ATOM      6  C           0     112.484 177.134 138.981  0.00  0.00     0.000 C 
ATOM      7  C           0     111.950 176.189 138.087  0.00  0.00     0.002 C 
ATOM      8  C           0     111.771 176.547 136.739  0.00  0.00     0.024 C 
ATOM      9  C           0     111.196 175.661 135.859  0.00  0.00     0.094 C 
ATOM     10  C           0     110.759 174.419 136.308  0.00  0.00     0.027 C 
ATOM     11  C           0     110.916 174.042 137.634  0.00  0.00     0.035 C 
ATOM     12  C           0     110.387 172.755 138.078  0.00  0.00     0.133 C 
ATOM     13  N           0     110.181 171.597 137.495  0.00  0.00    -0.283 N 
ATOM     14  HN          0     110.181 171.437 136.487  1.00  0.00     0.188 HD
ATOM     15  N           0     109.976 170.687 138.398  0.00  0.00    -0.283 N 
ATOM     16  HN          0     109.868 169.690 138.214  1.00  0.00     0.188 HD
ATOM     17  C           0     109.930 171.245 139.575  0.00  0.00     0.133 C 
ATOM     18  N           0     109.829 172.613 139.351  0.00  0.00    -0.325 N 
ATOM     19  HN          0     109.482 173.304 139.934  0.00  0.00     0.169 HD
ATOM     20  C           0     110.041 170.732 140.946  0.00  0.00     0.033 C 
ATOM     21  C           0     109.709 169.423 141.257  0.00  0.00    -0.001 C 
ATOM     22  C           0     109.734 168.982 142.574  0.00  0.00    -0.022 C 
ATOM     23  C           0     110.030 169.845 143.587  0.00  0.00    -0.004 C 
ATOM     24  C           0     110.343 171.183 143.302  0.00  0.00    -0.000 C 
ATOM     25  C           0     110.434 172.145 144.325  0.00  0.00    -0.000 C 
ATOM     26  C           0     110.847 173.408 144.023  0.00  0.00     0.000 C 
ATOM     27  C           0     111.235 173.749 142.737  0.00  0.00     0.003 C 
ATOM     28  C           0     111.193 172.817 141.695  0.00  0.00     0.039 C 
ATOM     29  C           0     110.544 171.586 141.956  0.00  0.00     0.006 C 
ATOM     30  C           0     111.608 174.887 138.538  0.00  0.00     0.006 C 
ENDROOT
BRANCH   9  31
ATOM     31  O           0     111.045 176.002 134.552  0.00  0.00    -0.331 OA
BRANCH  31  32
ATOM     32  C           0     112.317 176.469 134.099  0.00  0.00     0.149 C 
ATOM     33  C           0     113.034 175.344 133.347  0.00  0.00     0.035 C 
ENDBRANCH  31  32
ENDBRANCH   9  31
BRANCH  22  34
ATOM     34  C           0     109.410 167.546 142.886  0.00  0.00     0.026 C 
ATOM     35  C           0     108.209 167.100 142.049  0.00  0.00     0.005 C 
ENDBRANCH  22  34
TORSDOF 3
ENDMDL
MODEL 8
REMARK VINA RESULT:      -7.3      3.750      7.004
REMARK  3 active torsions:
REMARK  status: ('A' for Active; 'I' for Inactive)
REMARK    1  A    between atoms: C_9  and  O_10 
REMARK    2  A    between atoms: O_10  and  C_11 
REMARK    3  A    between atoms: C_25  and  C_26 
ROOT
ATOM      1  O           0     111.857 171.551 138.744  0.00  0.00    -0.287 OA
ATOM      2  C           0     110.995 171.634 137.898  0.00  0.00     0.196 C 
ATOM      3  C           0     110.276 170.407 137.562  0.00  0.00     0.039 C 
ATOM      4  C           0     110.113 170.099 136.208  0.00  0.00     0.003 C 
ATOM      5  C           0     109.436 168.970 135.788  0.00  0.00     0.000 C 
ATOM      6  C           0     108.951 168.077 136.693  0.00  0.00     0.000 C 
ATOM      7  C           0     109.145 168.302 138.067  0.00  0.00     0.002 C 
ATOM      8  C           0     108.766 167.306 138.984  0.00  0.00     0.024 C 
ATOM      9  C           0     108.891 167.527 140.336  0.00  0.00     0.094 C 
ATOM     10  C           0     109.362 168.751 140.800  0.00  0.00     0.027 C 
ATOM     11  C           0     109.737 169.754 139.918  0.00  0.00     0.035 C 
ATOM     12  C           0     110.166 171.046 140.447  0.00  0.00     0.133 C 
ATOM     13  N           0     110.751 171.435 141.557  0.00  0.00    -0.283 N 
ATOM     14  HN          0     110.846 170.871 142.401  1.00  0.00     0.188 HD
ATOM     15  N           0     111.189 172.649 141.413  0.00  0.00    -0.283 N 
ATOM     16  HN          0     111.749 173.157 142.098  1.00  0.00     0.188 HD
ATOM     17  C           0     110.804 173.117 140.260  0.00  0.00     0.133 C 
ATOM     18  N           0     109.843 172.233 139.784  0.00  0.00    -0.325 N 
ATOM     19  HN          0     109.136 172.386 139.140  0.00  0.00     0.169 HD
ATOM     20  C           0     111.231 174.250 139.431  0.00  0.00     0.033 C 
ATOM     21  C           0     111.824 175.372 139.990  0.00  0.00    -0.001 C 
ATOM     22  C           0     112.139 176.471 139.202  0.00  0.00    -0.022 C 
ATOM     23  C           0     111.817 176.488 137.877  0.00  0.00    -0.004 C 
ATOM     24  C           0     111.191 175.377 137.291  0.00  0.00    -0.000 C 
ATOM     25  C           0     110.648 175.444 135.995  0.00  0.00    -0.000 C 
ATOM     26  C           0     110.147 174.316 135.418  0.00  0.00     0.000 C 
ATOM     27  C           0     110.212 173.090 136.062  0.00  0.00     0.003 C 
ATOM     28  C           0     110.772 172.969 137.337  0.00  0.00     0.039 C 
ATOM     29  C           0     111.073 174.168 138.027  0.00  0.00     0.006 C 
ATOM     30  C           0     109.728 169.515 138.521  0.00  0.00     0.006 C 
ENDROOT
BRANCH   9  31
ATOM     31  O           0     108.545 166.554 141.218  0.00  0.00    -0.331 OA
BRANCH  31  32
ATOM     32  C           0     109.731 166.207 141.936  0.00  0.00     0.149 C 
ATOM     33  C           0     110.114 164.760 141.618  0.00  0.00     0.035 C 
ENDBRANCH  31  32
ENDBRANCH   9  31
BRANCH  22  34
ATOM     34  C           0     112.820 177.661 139.821  0.00  0.00     0.026 C 
ATOM     35  C           0     113.058 177.398 141.309  0.00  0.00     0.005 C 
ENDBRANCH  22  34
TORSDOF 3
ENDMDL
MODEL 9
REMARK VINA RESULT:      -7.3      9.282     11.370
REMARK  3 active torsions:
REMARK  status: ('A' for Active; 'I' for Inactive)
REMARK    1  A    between atoms: C_9  and  O_10 
REMARK    2  A    between atoms: O_10  and  C_11 
REMARK    3  A    between atoms: C_25  and  C_26 
ROOT
ATOM      1  O           0     109.908 163.543 141.734  0.00  0.00    -0.287 OA
ATOM      2  C           0     111.007 163.176 141.385  0.00  0.00     0.196 C 
ATOM      3  C           0     111.225 163.011 139.949  0.00  0.00     0.039 C 
ATOM      4  C           0     111.841 161.833 139.517  0.00  0.00     0.003 C 
ATOM      5  C           0     112.104 161.588 138.182  0.00  0.00     0.000 C 
ATOM      6  C           0     111.712 162.474 137.226  0.00  0.00     0.000 C 
ATOM      7  C           0     111.028 163.645 137.599  0.00  0.00     0.002 C 
ATOM      8  C           0     110.505 164.480 136.596  0.00  0.00     0.024 C 
ATOM      9  C           0     109.884 165.660 136.933  0.00  0.00     0.094 C 
ATOM     10  C           0     109.803 166.046 138.267  0.00  0.00     0.027 C 
ATOM     11  C           0     110.318 165.245 139.277  0.00  0.00     0.035 C 
ATOM     12  C           0     110.268 165.718 140.658  0.00  0.00     0.133 C 
ATOM     13  N           0     109.462 166.507 141.330  0.00  0.00    -0.283 N 
ATOM     14  HN          0     108.773 167.135 140.916  1.00  0.00     0.188 HD
ATOM     15  N           0     109.678 166.366 142.602  0.00  0.00    -0.283 N 
ATOM     16  HN          0     109.133 166.807 143.344  1.00  0.00     0.188 HD
ATOM     17  C           0     110.698 165.575 142.785  0.00  0.00     0.133 C 
ATOM     18  N           0     111.311 165.441 141.546  0.00  0.00    -0.325 N 
ATOM     19  HN          0     112.225 165.196 141.339  0.00  0.00     0.169 HD
ATOM     20  C           0     111.200 164.818 143.938  0.00  0.00     0.033 C 
ATOM     21  C           0     110.937 165.221 145.238  0.00  0.00    -0.001 C 
ATOM     22  C           0     111.496 164.544 146.314  0.00  0.00    -0.022 C 
ATOM     23  C           0     112.357 163.507 146.107  0.00  0.00    -0.004 C 
ATOM     24  C           0     112.663 163.096 144.801  0.00  0.00    -0.000 C 
ATOM     25  C           0     113.707 162.189 144.546  0.00  0.00    -0.000 C 
ATOM     26  C           0     113.902 161.729 143.279  0.00  0.00     0.000 C 
ATOM     27  C           0     113.056 162.094 142.243  0.00  0.00     0.003 C 
ATOM     28  C           0     111.986 162.968 142.456  0.00  0.00     0.039 C 
ATOM     29  C           0     111.927 163.626 143.708  0.00  0.00     0.006 C 
ATOM     30  C           0     110.859 163.972 138.970  0.00  0.00     0.006 C 
ENDROOT
BRANCH   9  31
ATOM     31  O           0     109.359 166.453 135.963  0.00  0.00    -0.331 OA
BRANCH  31  32
ATOM     32  C           0     108.224 167.106 136.535  0.00  0.00     0.149 C 
ATOM     33  C           0     108.351 168.618 136.333  0.00  0.00     0.035 C 
ENDBRANCH  31  32
ENDBRANCH   9  31
BRANCH  22  34
ATOM     34  C           0     111.164 164.972 147.718  0.00  0.00     0.026 C 
ATOM     35  C           0     109.821 164.369 148.132  0.00  0.00     0.005 C 
ENDBRANCH  22  34
TORSDOF 3
ENDMDL
