MODEL 1
REMARK VINA RESULT:      -8.4      0.000      0.000
REMARK  1 active torsions:
REMARK  status: ('A' for Active; 'I' for Inactive)
REMARK    1  A    between atoms: C_10  and  O_11 
ROOT
ATOM      1  O           0     112.055 165.357 140.297  0.00  0.00    -0.287 OA
ATOM      2  C           0     110.900 165.606 140.037  0.00  0.00     0.194 C 
ATOM      3  C           0     110.432 165.253 138.698  0.00  0.00     0.027 C 
ATOM      4  C           0     109.710 166.217 137.986  0.00  0.00     0.023 C 
ATOM      5  C           0     109.214 165.975 136.719  0.00  0.00    -0.060 C 
ATOM      6  C           0     108.401 167.033 136.020  0.00  0.00     0.048 C 
ATOM      7  C           0     109.470 164.796 136.088  0.00  0.00     0.019 C 
ATOM      8  C           0     110.248 163.817 136.732  0.00  0.00    -0.021 C 
ATOM      9  C           0     110.622 162.663 136.019  0.00  0.00     0.049 C 
ATOM     10  C           0     111.331 161.664 136.644  0.00  0.00     0.070 C 
ATOM     11  C           0     111.652 161.779 137.993  0.00  0.00     0.053 C 
ATOM     12  C           0     111.291 162.903 138.724  0.00  0.00     0.024 C 
ATOM     13  C           0     111.597 162.954 140.150  0.00  0.00     0.133 C 
ATOM     14  N           0     112.532 162.432 140.910  0.00  0.00    -0.283 N 
ATOM     15  HN          0     113.161 161.677 140.636  1.00  0.00     0.188 HD
ATOM     16  N           0     112.535 163.027 142.064  0.00  0.00    -0.283 N 
ATOM     17  HN          0     113.215 162.866 142.807  1.00  0.00     0.188 HD
ATOM     18  C           0     111.536 163.861 142.127  0.00  0.00     0.132 C 
ATOM     19  N           0     110.713 163.560 141.048  0.00  0.00    -0.325 N 
ATOM     20  HN          0     109.768 163.741 140.930  0.00  0.00     0.169 HD
ATOM     21  C           0     111.211 164.996 143.000  0.00  0.00     0.021 C 
ATOM     22  C           0     111.713 165.085 144.288  0.00  0.00     0.016 C 
ATOM     23  C           0     111.320 166.117 145.130  0.00  0.00     0.002 C 
ATOM     24  C           0     110.394 167.031 144.720  0.00  0.00     0.012 C 
ATOM     25  C           0     109.852 166.950 143.427  0.00  0.00    -0.024 C 
ATOM     26  C           0     108.745 167.730 143.051  0.00  0.00     0.012 C 
ATOM     27  C           0     108.315 167.708 141.758  0.00  0.00     0.002 C 
ATOM     28  C           0     108.987 166.975 140.791  0.00  0.00     0.016 C 
ATOM     29  C           0     110.111 166.210 141.114  0.00  0.00     0.027 C 
ATOM     30  C           0     110.409 166.044 142.488  0.00  0.00     0.002 C 
ATOM     31  C           0     110.659 163.996 138.079  0.00  0.00     0.003 C 
ENDROOT
BRANCH  10  32
ATOM     32  O           0     111.709 160.562 135.947  0.00  0.00    -0.356 OA
ATOM     33  C           0     111.815 160.956 134.578  0.00  0.00     0.210 C 
ENDBRANCH  10  32
TORSDOF 1
ENDMDL
MODEL 2
REMARK VINA RESULT:      -8.3      9.074     12.677
REMARK  1 active torsions:
REMARK  status: ('A' for Active; 'I' for Inactive)
REMARK    1  A    between atoms: C_10  and  O_11 
ROOT
ATOM      1  O           0     112.598 174.273 135.488  0.00  0.00    -0.287 OA
ATOM      2  C           0     111.564 173.651 135.578  0.00  0.00     0.194 C 
ATOM      3  C           0     111.103 173.326 136.926  0.00  0.00     0.027 C 
ATOM      4  C           0     110.700 172.010 137.175  0.00  0.00     0.023 C 
ATOM      5  C           0     110.236 171.607 138.413  0.00  0.00    -0.060 C 
ATOM      6  C           0     109.767 170.188 138.611  0.00  0.00     0.048 C 
ATOM      7  C           0     110.216 172.474 139.462  0.00  0.00     0.019 C 
ATOM      8  C           0     110.674 173.791 139.284  0.00  0.00    -0.021 C 
ATOM      9  C           0     110.781 174.636 140.404  0.00  0.00     0.049 C 
ATOM     10  C           0     111.168 175.946 140.248  0.00  0.00     0.070 C 
ATOM     11  C           0     111.425 176.448 138.976  0.00  0.00     0.053 C 
ATOM     12  C           0     111.323 175.640 137.852  0.00  0.00     0.024 C 
ATOM     13  C           0     111.544 176.225 136.532  0.00  0.00     0.133 C 
ATOM     14  N           0     112.266 177.223 136.077  0.00  0.00    -0.283 N 
ATOM     15  HN          0     112.693 177.950 136.651  1.00  0.00     0.188 HD
ATOM     16  N           0     112.352 177.142 134.784  0.00  0.00    -0.283 N 
ATOM     17  HN          0     112.920 177.748 134.193  1.00  0.00     0.188 HD
ATOM     18  C           0     111.599 176.167 134.358  0.00  0.00     0.132 C 
ATOM     19  N           0     110.794 175.803 135.430  0.00  0.00    -0.325 N 
ATOM     20  HN          0     109.938 175.350 135.425  0.00  0.00     0.169 HD
ATOM     21  C           0     111.527 175.413 133.100  0.00  0.00     0.021 C 
ATOM     22  C           0     111.955 175.962 131.902  0.00  0.00     0.016 C 
ATOM     23  C           0     111.792 175.270 130.709  0.00  0.00     0.002 C 
ATOM     24  C           0     111.160 174.061 130.691  0.00  0.00     0.012 C 
ATOM     25  C           0     110.695 173.493 131.887  0.00  0.00    -0.024 C 
ATOM     26  C           0     109.852 172.369 131.881  0.00  0.00     0.012 C 
ATOM     27  C           0     109.511 171.778 133.061  0.00  0.00     0.002 C 
ATOM     28  C           0     110.028 172.230 134.265  0.00  0.00     0.016 C 
ATOM     29  C           0     110.894 173.325 134.316  0.00  0.00     0.027 C 
ATOM     30  C           0     111.055 174.079 133.128  0.00  0.00     0.002 C 
ATOM     31  C           0     111.035 174.259 137.993  0.00  0.00     0.003 C 
ENDROOT
BRANCH  10  32
ATOM     32  O           0     111.290 176.752 141.334  0.00  0.00    -0.356 OA
ATOM     33  C           0     112.665 177.131 141.414  0.00  0.00     0.210 C 
ENDBRANCH  10  32
TORSDOF 1
ENDMDL
MODEL 3
REMARK VINA RESULT:      -8.2      2.834      7.792
REMARK  1 active torsions:
REMARK  status: ('A' for Active; 'I' for Inactive)
REMARK    1  A    between atoms: C_10  and  O_11 
ROOT
ATOM      1  O           0     110.694 166.745 136.814  0.00  0.00    -0.287 OA
ATOM      2  C           0     110.581 165.555 137.003  0.00  0.00     0.194 C 
ATOM      3  C           0     110.698 165.090 138.384  0.00  0.00     0.027 C 
ATOM      4  C           0     111.529 163.993 138.632  0.00  0.00     0.023 C 
ATOM      5  C           0     111.696 163.471 139.901  0.00  0.00    -0.060 C 
ATOM      6  C           0     112.564 162.256 140.101  0.00  0.00     0.048 C 
ATOM      7  C           0     111.098 164.055 140.975  0.00  0.00     0.019 C 
ATOM      8  C           0     110.306 165.202 140.791  0.00  0.00    -0.021 C 
ATOM      9  C           0     109.808 165.878 141.920  0.00  0.00     0.049 C 
ATOM     10  C           0     108.981 166.966 141.766  0.00  0.00     0.070 C 
ATOM     11  C           0     108.609 167.381 140.492  0.00  0.00     0.053 C 
ATOM     12  C           0     109.079 166.730 139.359  0.00  0.00     0.024 C 
ATOM     13  C           0     108.616 167.164 138.044  0.00  0.00     0.133 C 
ATOM     14  N           0     108.207 168.307 137.543  0.00  0.00    -0.283 N 
ATOM     15  HN          0     107.940 169.127 138.088  1.00  0.00     0.188 HD
ATOM     16  N           0     108.194 168.233 136.247  0.00  0.00    -0.283 N 
ATOM     17  HN          0     107.992 169.008 135.615  1.00  0.00     0.188 HD
ATOM     18  C           0     108.478 167.016 135.878  0.00  0.00     0.132 C 
ATOM     19  N           0     108.394 166.234 137.024  0.00  0.00    -0.325 N 
ATOM     20  HN          0     108.242 165.281 137.104  0.00  0.00     0.169 HD
ATOM     21  C           0     108.910 166.412 134.611  0.00  0.00     0.021 C 
ATOM     22  C           0     108.610 166.996 133.391  0.00  0.00     0.016 C 
ATOM     23  C           0     108.945 166.362 132.202  0.00  0.00     0.002 C 
ATOM     24  C           0     109.528 165.128 132.215  0.00  0.00     0.012 C 
ATOM     25  C           0     109.820 164.503 133.438  0.00  0.00    -0.024 C 
ATOM     26  C           0     110.211 163.154 133.490  0.00  0.00     0.012 C 
ATOM     27  C           0     110.595 162.611 134.681  0.00  0.00     0.002 C 
ATOM     28  C           0     110.664 163.382 135.831  0.00  0.00     0.016 C 
ATOM     29  C           0     110.315 164.736 135.818  0.00  0.00     0.027 C 
ATOM     30  C           0     109.693 165.232 134.647  0.00  0.00     0.002 C 
ATOM     31  C           0     110.021 165.678 139.484  0.00  0.00     0.003 C 
ENDROOT
BRANCH  10  32
ATOM     32  O           0     108.521 167.629 142.858  0.00  0.00    -0.356 OA
ATOM     33  C           0     109.667 168.046 143.602  0.00  0.00     0.210 C 
ENDBRANCH  10  32
TORSDOF 1
ENDMDL
MODEL 4
REMARK VINA RESULT:      -8.1      8.848     10.764
REMARK  1 active torsions:
REMARK  status: ('A' for Active; 'I' for Inactive)
REMARK    1  A    between atoms: C_10  and  O_11 
ROOT
ATOM      1  O           0     110.175 175.511 140.015  0.00  0.00    -0.287 OA
ATOM      2  C           0     110.621 174.390 139.920  0.00  0.00     0.194 C 
ATOM      3  C           0     110.773 173.851 138.571  0.00  0.00     0.027 C 
ATOM      4  C           0     110.295 172.559 138.330  0.00  0.00     0.023 C 
ATOM      5  C           0     110.405 171.955 137.091  0.00  0.00    -0.060 C 
ATOM      6  C           0     109.917 170.542 136.902  0.00  0.00     0.048 C 
ATOM      7  C           0     110.930 172.633 136.034  0.00  0.00     0.019 C 
ATOM      8  C           0     111.365 173.959 136.205  0.00  0.00    -0.021 C 
ATOM      9  C           0     111.777 174.694 135.078  0.00  0.00     0.049 C 
ATOM     10  C           0     112.263 175.973 135.227  0.00  0.00     0.070 C 
ATOM     11  C           0     112.379 176.529 136.496  0.00  0.00     0.053 C 
ATOM     12  C           0     111.986 175.825 137.627  0.00  0.00     0.024 C 
ATOM     13  C           0     112.181 176.426 138.943  0.00  0.00     0.133 C 
ATOM     14  N           0     112.216 177.658 139.396  0.00  0.00    -0.283 N 
ATOM     15  HN          0     112.309 178.495 138.820  1.00  0.00     0.188 HD
ATOM     16  N           0     112.116 177.648 140.691  0.00  0.00    -0.283 N 
ATOM     17  HN          0     112.038 178.475 141.282  1.00  0.00     0.188 HD
ATOM     18  C           0     112.131 176.417 141.118  0.00  0.00     0.132 C 
ATOM     19  N           0     112.537 175.638 140.041  0.00  0.00    -0.325 N 
ATOM     20  HN          0     112.946 174.759 140.042  0.00  0.00     0.169 HD
ATOM     21  C           0     111.749 175.774 142.382  0.00  0.00     0.021 C 
ATOM     22  C           0     111.756 176.472 143.579  0.00  0.00     0.016 C 
ATOM     23  C           0     111.483 175.823 144.777  0.00  0.00     0.002 C 
ATOM     24  C           0     111.255 174.478 144.800  0.00  0.00     0.012 C 
ATOM     25  C           0     111.266 173.743 143.603  0.00  0.00    -0.024 C 
ATOM     26  C           0     111.257 172.338 143.612  0.00  0.00     0.012 C 
ATOM     27  C           0     111.156 171.660 142.434  0.00  0.00     0.002 C 
ATOM     28  C           0     111.002 172.331 141.231  0.00  0.00     0.016 C 
ATOM     29  C           0     110.974 173.727 141.179  0.00  0.00     0.027 C 
ATOM     30  C           0     111.317 174.426 142.361  0.00  0.00     0.002 C 
ATOM     31  C           0     111.378 174.552 137.495  0.00  0.00     0.003 C 
ENDROOT
BRANCH  10  32
ATOM     32  O           0     112.639 176.686 134.135  0.00  0.00    -0.356 OA
ATOM     33  C           0     111.856 176.209 133.039  0.00  0.00     0.210 C 
ENDBRANCH  10  32
TORSDOF 1
ENDMDL
MODEL 5
REMARK VINA RESULT:      -7.9      2.470      7.489
REMARK  1 active torsions:
REMARK  status: ('A' for Active; 'I' for Inactive)
REMARK    1  A    between atoms: C_10  and  O_11 
ROOT
ATOM      1  O           0     111.160 166.927 138.901  0.00  0.00    -0.287 OA
ATOM      2  C           0     110.842 165.791 139.169  0.00  0.00     0.194 C 
ATOM      3  C           0     110.906 165.401 140.576  0.00  0.00     0.027 C 
ATOM      4  C           0     111.535 164.191 140.887  0.00  0.00     0.023 C 
ATOM      5  C           0     111.634 163.729 142.186  0.00  0.00    -0.060 C 
ATOM      6  C           0     112.278 162.393 142.457  0.00  0.00     0.048 C 
ATOM      7  C           0     111.175 164.477 143.225  0.00  0.00     0.019 C 
ATOM      8  C           0     110.594 165.733 142.975  0.00  0.00    -0.021 C 
ATOM      9  C           0     110.251 166.557 144.063  0.00  0.00     0.049 C 
ATOM     10  C           0     109.627 167.764 143.845  0.00  0.00     0.070 C 
ATOM     11  C           0     109.305 168.157 142.551  0.00  0.00     0.053 C 
ATOM     12  C           0     109.627 167.362 141.458  0.00  0.00     0.024 C 
ATOM     13  C           0     109.218 167.788 140.123  0.00  0.00     0.133 C 
ATOM     14  N           0     109.007 168.951 139.552  0.00  0.00    -0.283 N 
ATOM     15  HN          0     108.902 169.839 140.045  1.00  0.00     0.188 HD
ATOM     16  N           0     108.952 168.799 138.264  0.00  0.00    -0.283 N 
ATOM     17  HN          0     108.877 169.556 137.584  1.00  0.00     0.188 HD
ATOM     18  C           0     109.007 167.530 137.973  0.00  0.00     0.132 C 
ATOM     19  N           0     108.811 166.850 139.169  0.00  0.00    -0.325 N 
ATOM     20  HN          0     108.494 165.946 139.313  0.00  0.00     0.169 HD
ATOM     21  C           0     109.296 166.780 136.744  0.00  0.00     0.021 C 
ATOM     22  C           0     109.077 167.330 135.492  0.00  0.00     0.016 C 
ATOM     23  C           0     109.267 166.573 134.344  0.00  0.00     0.002 C 
ATOM     24  C           0     109.622 165.258 134.432  0.00  0.00     0.012 C 
ATOM     25  C           0     109.826 164.669 135.690  0.00  0.00    -0.024 C 
ATOM     26  C           0     109.973 163.278 135.827  0.00  0.00     0.012 C 
ATOM     27  C           0     110.281 162.752 137.046  0.00  0.00     0.002 C 
ATOM     28  C           0     110.511 163.569 138.142  0.00  0.00     0.016 C 
ATOM     29  C           0     110.408 164.959 138.044  0.00  0.00     0.027 C 
ATOM     30  C           0     109.858 165.484 136.850  0.00  0.00     0.002 C 
ATOM     31  C           0     110.369 166.169 141.643  0.00  0.00     0.003 C 
ENDROOT
BRANCH  10  32
ATOM     32  O           0     109.316 168.565 144.896  0.00  0.00    -0.356 OA
ATOM     33  C           0     109.549 167.802 146.081  0.00  0.00     0.210 C 
ENDBRANCH  10  32
TORSDOF 1
ENDMDL
MODEL 6
REMARK VINA RESULT:      -7.9      2.479      7.617
REMARK  1 active torsions:
REMARK  status: ('A' for Active; 'I' for Inactive)
REMARK    1  A    between atoms: C_10  and  O_11 
ROOT
ATOM      1  O           0     111.706 165.350 137.353  0.00  0.00    -0.287 OA
ATOM      2  C           0     111.296 164.339 137.875  0.00  0.00     0.194 C 
ATOM      3  C           0     110.966 164.415 139.297  0.00  0.00     0.027 C 
ATOM      4  C           0     111.453 163.406 140.133  0.00  0.00     0.023 C 
ATOM      5  C           0     111.184 163.382 141.489  0.00  0.00    -0.060 C 
ATOM      6  C           0     111.694 162.243 142.332  0.00  0.00     0.048 C 
ATOM      7  C           0     110.479 164.389 142.073  0.00  0.00     0.019 C 
ATOM      8  C           0     110.023 165.464 141.290  0.00  0.00    -0.021 C 
ATOM      9  C           0     109.418 166.565 141.924  0.00  0.00     0.049 C 
ATOM     10  C           0     108.909 167.601 141.176  0.00  0.00     0.070 C 
ATOM     11  C           0     108.962 167.546 139.787  0.00  0.00     0.053 C 
ATOM     12  C           0     109.547 166.470 139.133  0.00  0.00     0.024 C 
ATOM     13  C           0     109.528 166.428 137.673  0.00  0.00     0.133 C 
ATOM     14  N           0     109.511 167.338 136.727  0.00  0.00    -0.283 N 
ATOM     15  HN          0     109.301 168.326 136.863  1.00  0.00     0.188 HD
ATOM     16  N           0     109.805 166.785 135.589  0.00  0.00    -0.283 N 
ATOM     17  HN          0     109.937 167.284 134.709  1.00  0.00     0.188 HD
ATOM     18  C           0     109.903 165.495 135.744  0.00  0.00     0.132 C 
ATOM     19  N           0     109.372 165.215 136.997  0.00  0.00    -0.325 N 
ATOM     20  HN          0     109.003 164.384 137.333  0.00  0.00     0.169 HD
ATOM     21  C           0     110.495 164.416 134.943  0.00  0.00     0.021 C 
ATOM     22  C           0     110.639 164.530 133.570  0.00  0.00     0.016 C 
ATOM     23  C           0     111.114 163.463 132.818  0.00  0.00     0.002 C 
ATOM     24  C           0     111.396 162.268 133.412  0.00  0.00     0.012 C 
ATOM     25  C           0     111.235 162.118 134.799  0.00  0.00    -0.024 C 
ATOM     26  C           0     111.302 160.853 135.407  0.00  0.00     0.012 C 
ATOM     27  C           0     111.253 160.757 136.766  0.00  0.00     0.002 C 
ATOM     28  C           0     111.198 161.890 137.563  0.00  0.00     0.016 C 
ATOM     29  C           0     111.162 163.170 137.002  0.00  0.00     0.027 C 
ATOM     30  C           0     110.972 163.257 135.602  0.00  0.00     0.002 C 
ATOM     31  C           0     110.179 165.444 139.879  0.00  0.00     0.003 C 
ENDROOT
BRANCH  10  32
ATOM     32  O           0     108.346 168.671 141.793  0.00  0.00    -0.356 OA
ATOM     33  C           0     109.419 169.484 142.271  0.00  0.00     0.210 C 
ENDBRANCH  10  32
TORSDOF 1
ENDMDL
MODEL 7
REMARK VINA RESULT:      -7.8      2.108      4.576
REMARK  1 active torsions:
REMARK  status: ('A' for Active; 'I' for Inactive)
REMARK    1  A    between atoms: C_10  and  O_11 
ROOT
ATOM      1  O           0     109.776 163.792 141.812  0.00  0.00    -0.287 OA
ATOM      2  C           0     110.848 163.393 141.418  0.00  0.00     0.194 C 
ATOM      3  C           0     111.025 163.291 139.971  0.00  0.00     0.027 C 
ATOM      4  C           0     111.572 162.107 139.465  0.00  0.00     0.023 C 
ATOM      5  C           0     111.791 161.920 138.113  0.00  0.00    -0.060 C 
ATOM      6  C           0     112.429 160.644 137.629  0.00  0.00     0.048 C 
ATOM      7  C           0     111.418 162.869 137.212  0.00  0.00     0.019 C 
ATOM      8  C           0     110.803 164.051 137.662  0.00  0.00    -0.021 C 
ATOM      9  C           0     110.296 164.961 136.716  0.00  0.00     0.049 C 
ATOM     10  C           0     109.744 166.151 137.128  0.00  0.00     0.070 C 
ATOM     11  C           0     109.715 166.472 138.481  0.00  0.00     0.053 C 
ATOM     12  C           0     110.212 165.596 139.437  0.00  0.00     0.024 C 
ATOM     13  C           0     110.214 166.000 140.841  0.00  0.00     0.133 C 
ATOM     14  N           0     109.465 166.793 141.571  0.00  0.00    -0.283 N 
ATOM     15  HN          0     108.799 167.475 141.207  1.00  0.00     0.188 HD
ATOM     16  N           0     109.700 166.575 142.829  0.00  0.00    -0.283 N 
ATOM     17  HN          0     109.195 167.002 143.605  1.00  0.00     0.188 HD
ATOM     18  C           0     110.683 165.728 142.948  0.00  0.00     0.132 C 
ATOM     19  N           0     111.262 165.628 141.688  0.00  0.00    -0.325 N 
ATOM     20  HN          0     112.159 165.351 141.447  0.00  0.00     0.169 HD
ATOM     21  C           0     111.175 164.887 144.046  0.00  0.00     0.021 C 
ATOM     22  C           0     110.956 165.227 145.372  0.00  0.00     0.016 C 
ATOM     23  C           0     111.509 164.470 146.396  0.00  0.00     0.002 C 
ATOM     24  C           0     112.320 163.409 146.114  0.00  0.00     0.012 C 
ATOM     25  C           0     112.577 163.058 144.779  0.00  0.00    -0.024 C 
ATOM     26  C           0     113.573 162.121 144.452  0.00  0.00     0.012 C 
ATOM     27  C           0     113.719 161.721 143.157  0.00  0.00     0.002 C 
ATOM     28  C           0     112.865 162.177 142.165  0.00  0.00     0.016 C 
ATOM     29  C           0     111.841 163.085 142.451  0.00  0.00     0.027 C 
ATOM     30  C           0     111.842 163.677 143.736  0.00  0.00     0.002 C 
ATOM     31  C           0     110.684 164.316 139.051  0.00  0.00     0.003 C 
ENDROOT
BRANCH  10  32
ATOM     32  O           0     109.237 167.017 136.214  0.00  0.00    -0.356 OA
ATOM     33  C           0     108.502 168.003 136.941  0.00  0.00     0.210 C 
ENDBRANCH  10  32
TORSDOF 1
ENDMDL
MODEL 8
REMARK VINA RESULT:      -7.7     15.675     18.577
REMARK  1 active torsions:
REMARK  status: ('A' for Active; 'I' for Inactive)
REMARK    1  A    between atoms: C_10  and  O_11 
ROOT
ATOM      1  O           0     107.575 146.795 133.462  0.00  0.00    -0.287 OA
ATOM      2  C           0     108.400 147.644 133.713  0.00  0.00     0.194 C 
ATOM      3  C           0     107.980 149.037 133.568  0.00  0.00     0.027 C 
ATOM      4  C           0     108.828 149.902 132.868  0.00  0.00     0.023 C 
ATOM      5  C           0     108.527 151.239 132.689  0.00  0.00    -0.060 C 
ATOM      6  C           0     109.501 152.135 131.970  0.00  0.00     0.048 C 
ATOM      7  C           0     107.348 151.750 133.139  0.00  0.00     0.019 C 
ATOM      8  C           0     106.429 150.909 133.790  0.00  0.00    -0.021 C 
ATOM      9  C           0     105.159 151.413 134.125  0.00  0.00     0.049 C 
ATOM     10  C           0     104.264 150.629 134.816  0.00  0.00     0.070 C 
ATOM     11  C           0     104.626 149.346 135.213  0.00  0.00     0.053 C 
ATOM     12  C           0     105.874 148.824 134.901  0.00  0.00     0.024 C 
ATOM     13  C           0     106.231 147.494 135.388  0.00  0.00     0.133 C 
ATOM     14  N           0     105.554 146.408 135.680  0.00  0.00    -0.283 N 
ATOM     15  HN          0     104.543 146.361 135.806  1.00  0.00     0.188 HD
ATOM     16  N           0     106.369 145.403 135.784  0.00  0.00    -0.283 N 
ATOM     17  HN          0     106.091 144.432 135.926  1.00  0.00     0.188 HD
ATOM     18  C           0     107.597 145.826 135.680  0.00  0.00     0.132 C 
ATOM     19  N           0     107.540 147.211 135.790  0.00  0.00    -0.325 N 
ATOM     20  HN          0     108.234 147.832 136.056  0.00  0.00     0.169 HD
ATOM     21  C           0     108.881 145.167 135.409  0.00  0.00     0.021 C 
ATOM     22  C           0     109.086 143.830 135.709  0.00  0.00     0.016 C 
ATOM     23  C           0     110.334 143.249 135.533  0.00  0.00     0.002 C 
ATOM     24  C           0     111.394 143.998 135.112  0.00  0.00     0.012 C 
ATOM     25  C           0     111.220 145.361 134.824  0.00  0.00    -0.024 C 
ATOM     26  C           0     112.321 146.206 134.604  0.00  0.00     0.012 C 
ATOM     27  C           0     112.112 147.496 134.218  0.00  0.00     0.002 C 
ATOM     28  C           0     110.833 147.975 133.979  0.00  0.00     0.016 C 
ATOM     29  C           0     109.711 147.161 134.155  0.00  0.00     0.027 C 
ATOM     30  C           0     109.911 145.908 134.781  0.00  0.00     0.002 C 
ATOM     31  C           0     106.773 149.565 134.094  0.00  0.00     0.003 C 
ENDROOT
BRANCH  10  32
ATOM     32  O           0     103.032 151.112 135.119  0.00  0.00    -0.356 OA
ATOM     33  C           0     102.739 152.129 134.159  0.00  0.00     0.210 C 
ENDBRANCH  10  32
TORSDOF 1
ENDMDL
MODEL 9
REMARK VINA RESULT:      -7.7     25.025     27.496
REMARK  1 active torsions:
REMARK  status: ('A' for Active; 'I' for Inactive)
REMARK    1  A    between atoms: C_10  and  O_11 
ROOT
ATOM      1  O           0     134.722 158.962 152.502  0.00  0.00    -0.287 OA
ATOM      2  C           0     134.128 159.504 151.599  0.00  0.00     0.194 C 
ATOM      3  C           0     134.807 160.610 150.929  0.00  0.00     0.027 C 
ATOM      4  C           0     134.082 161.788 150.720  0.00  0.00     0.023 C 
ATOM      5  C           0     134.631 162.885 150.083  0.00  0.00    -0.060 C 
ATOM      6  C           0     133.787 164.109 149.841  0.00  0.00     0.048 C 
ATOM      7  C           0     135.935 162.878 149.692  0.00  0.00     0.019 C 
ATOM      8  C           0     136.729 161.744 149.938  0.00  0.00    -0.021 C 
ATOM      9  C           0     138.106 161.799 149.655  0.00  0.00     0.049 C 
ATOM     10  C           0     138.893 160.685 149.830  0.00  0.00     0.070 C 
ATOM     11  C           0     138.322 159.490 150.257  0.00  0.00     0.053 C 
ATOM     12  C           0     136.965 159.404 150.538  0.00  0.00     0.024 C 
ATOM     13  C           0     136.398 158.116 150.926  0.00  0.00     0.133 C 
ATOM     14  N           0     136.865 157.053 151.540  0.00  0.00    -0.283 N 
ATOM     15  HN          0     137.851 156.852 151.702  1.00  0.00     0.188 HD
ATOM     16  N           0     135.876 156.297 151.910  0.00  0.00    -0.283 N 
ATOM     17  HN          0     135.960 155.451 152.474  1.00  0.00     0.188 HD
ATOM     18  C           0     134.759 156.783 151.447  0.00  0.00     0.132 C 
ATOM     19  N           0     135.115 157.747 150.511  0.00  0.00    -0.325 N 
ATOM     20  HN          0     134.601 158.096 149.768  0.00  0.00     0.169 HD
ATOM     21  C           0     133.344 156.570 151.776  0.00  0.00     0.021 C 
ATOM     22  C           0     132.902 155.386 152.343  0.00  0.00     0.016 C 
ATOM     23  C           0     131.548 155.167 152.559  0.00  0.00     0.002 C 
ATOM     24  C           0     130.626 156.093 152.168  0.00  0.00     0.012 C 
ATOM     25  C           0     131.044 157.292 151.568  0.00  0.00    -0.024 C 
ATOM     26  C           0     130.124 158.160 150.957  0.00  0.00     0.012 C 
ATOM     27  C           0     130.550 159.366 150.484  0.00  0.00     0.002 C 
ATOM     28  C           0     131.864 159.777 150.648  0.00  0.00     0.016 C 
ATOM     29  C           0     132.806 158.959 151.278  0.00  0.00     0.027 C 
ATOM     30  C           0     132.424 157.623 151.550  0.00  0.00     0.002 C 
ATOM     31  C           0     136.151 160.564 150.475  0.00  0.00     0.003 C 
ENDROOT
BRANCH  10  32
ATOM     32  O           0     140.225 160.748 149.577  0.00  0.00    -0.356 OA
ATOM     33  C           0     140.727 161.883 150.286  0.00  0.00     0.210 C 
ENDBRANCH  10  32
TORSDOF 1
ENDMDL
