REMARK  1 active torsions:
REMARK  status: ('A' for Active; 'I' for Inactive)
REMARK    1  A    between atoms: C_10  and  O_11 
ROOT
ATOM      1  O           0      -0.702  -0.435   1.457  0.00  0.00    -0.287 OA
ATOM      2  C           0      -0.645   0.498   0.689  0.00  0.00     0.194 C 
ATOM      3  C           0       0.679   1.056   0.423  0.00  0.00     0.027 C 
ATOM      4  C           0       0.823   2.446   0.484  0.00  0.00     0.023 C 
ATOM      5  C           0       2.031   3.070   0.235  0.00  0.00    -0.060 C 
ATOM      6  C           0       2.116   4.574   0.266  0.00  0.00     0.048 C 
ATOM      7  C           0       3.150   2.338  -0.018  0.00  0.00     0.019 C 
ATOM      8  C           0       3.076   0.934  -0.025  0.00  0.00    -0.021 C 
ATOM      9  C           0       4.262   0.187  -0.149  0.00  0.00     0.049 C 
ATOM     10  C           0       4.210  -1.186  -0.219  0.00  0.00     0.070 C 
ATOM     11  C           0       2.981  -1.837  -0.200  0.00  0.00     0.053 C 
ATOM     12  C           0       1.794  -1.126  -0.084  0.00  0.00     0.024 C 
ATOM     13  C           0       0.525  -1.847  -0.127  0.00  0.00     0.133 C 
ATOM     14  N           0       0.143  -3.058   0.206  0.00  0.00    -0.283 N 
ATOM     15  HN          0       0.768  -3.841   0.398  1.00  0.00     0.188 HD
ATOM     16  N           0      -1.154  -3.106   0.254  0.00  0.00    -0.283 N 
ATOM     17  HN          0      -1.702  -3.908   0.565  1.00  0.00     0.188 HD
ATOM     18  C           0      -1.647  -1.972  -0.157  0.00  0.00     0.132 C 
ATOM     19  N           0      -0.594  -1.284  -0.748  0.00  0.00    -0.325 N 
ATOM     20  HN          0      -0.621  -0.576  -1.409  0.00  0.00     0.169 HD
ATOM     21  C           0      -2.963  -1.332  -0.037  0.00  0.00     0.021 C 
ATOM     22  C           0      -4.118  -2.078   0.132  0.00  0.00     0.016 C 
ATOM     23  C           0      -5.362  -1.461   0.149  0.00  0.00     0.002 C 
ATOM     24  C           0      -5.471  -0.116  -0.053  0.00  0.00     0.012 C 
ATOM     25  C           0      -4.318   0.660  -0.251  0.00  0.00    -0.024 C 
ATOM     26  C           0      -4.404   1.996  -0.679  0.00  0.00     0.012 C 
ATOM     27  C           0      -3.272   2.752  -0.753  0.00  0.00     0.002 C 
ATOM     28  C           0      -2.044   2.245  -0.357  0.00  0.00     0.016 C 
ATOM     29  C           0      -1.917   0.932   0.105  0.00  0.00     0.027 C 
ATOM     30  C           0      -3.039   0.082  -0.045  0.00  0.00     0.002 C 
ATOM     31  C           0       1.823   0.279   0.103  0.00  0.00     0.003 C 
ENDROOT
BRANCH  10  32
ATOM     32  O           0       5.358  -1.904  -0.317  0.00  0.00    -0.356 OA
ATOM     33  C           0       6.434  -0.964  -0.323  0.00  0.00     0.210 C 
ENDBRANCH  10  32
TORSDOF 1
