REMARK  0 active torsions:
REMARK  status: ('A' for Active; 'I' for Inactive)
ROOT
ATOM      1  O           0      -0.096  -0.386  -1.531  0.00  0.00    -0.287 OA
ATOM      2  C           0      -0.000   0.559  -0.783  0.00  0.00     0.194 C 
ATOM      3  C           0       1.347   1.052  -0.508  0.00  0.00     0.027 A 
ATOM      4  C           0       1.569   2.428  -0.622  0.00  0.00     0.016 A 
ATOM      5  C           0       2.804   2.997  -0.370  0.00  0.00     0.002 A 
ATOM      6  C           0       3.872   2.219  -0.046  0.00  0.00     0.012 A 
ATOM      7  C           0       3.719   0.822   0.027  0.00  0.00    -0.024 A 
ATOM      8  C           0       4.855   0.021   0.242  0.00  0.00     0.012 C 
ATOM      9  C           0       4.731  -1.329   0.370  0.00  0.00     0.002 C 
ATOM     10  C           0       3.481  -1.923   0.310  0.00  0.00     0.016 C 
ATOM     11  C           0       2.336  -1.167   0.103  0.00  0.00     0.024 C 
ATOM     12  C           0       1.030  -1.823   0.091  0.00  0.00     0.166 C 
ATOM     13  N           0       0.592  -2.999  -0.291  0.00  0.00    -0.281 N 
ATOM     14  HN          0       1.178  -3.809  -0.492  1.00  0.00     0.188 HD
ATOM     15  N           0      -0.703  -2.972  -0.373  0.00  0.00    -0.281 N 
ATOM     16  HN          0      -1.285  -3.729  -0.733  1.00  0.00     0.188 HD
ATOM     17  C           0      -1.147  -1.833   0.073  0.00  0.00     0.166 C 
ATOM     18  N           0      -0.071  -1.210   0.693  0.00  0.00    -0.142 N 
ATOM     19  F           0      -0.083  -0.304   1.627  0.00  0.00    -0.090 F 
ATOM     20  C           0      -2.428  -1.125  -0.046  0.00  0.00     0.024 C 
ATOM     21  C           0      -3.623  -1.810  -0.188  0.00  0.00     0.016 C 
ATOM     22  C           0      -4.831  -1.127  -0.215  0.00  0.00     0.002 C 
ATOM     23  C           0      -4.865   0.226  -0.052  0.00  0.00     0.012 C 
ATOM     24  C           0      -3.671   0.944   0.120  0.00  0.00    -0.024 C 
ATOM     25  C           0      -3.686   2.296   0.504  0.00  0.00     0.012 C 
ATOM     26  C           0      -2.516   2.992   0.558  0.00  0.00     0.002 C 
ATOM     27  C           0      -1.317   2.407   0.186  0.00  0.00     0.016 C 
ATOM     28  C           0      -1.257   1.074  -0.231  0.00  0.00     0.027 C 
ATOM     29  C           0      -2.424   0.292  -0.068  0.00  0.00     0.002 C 
ATOM     30  C           0       2.439   0.229  -0.126  0.00  0.00     0.002 A 
ENDROOT
TORSDOF 0
