REMARK  1 active torsions:
REMARK  status: ('A' for Active; 'I' for Inactive)
REMARK    1  A    between atoms: N_18  and  N_19 
ROOT
ATOM      1  O           0      -0.136  -0.261   1.379  0.00  0.00    -0.287 OA
ATOM      2  C           0      -0.113   0.715   0.663  0.00  0.00     0.194 C 
ATOM      3  C           0       1.199   1.295   0.385  0.00  0.00     0.027 C 
ATOM      4  C           0       1.322   2.688   0.473  0.00  0.00     0.016 C 
ATOM      5  C           0       2.516   3.336   0.216  0.00  0.00     0.002 C 
ATOM      6  C           0       3.643   2.626  -0.060  0.00  0.00     0.012 C 
ATOM      7  C           0       3.593   1.222  -0.076  0.00  0.00    -0.024 C 
ATOM      8  C           0       4.792   0.493  -0.179  0.00  0.00     0.012 C 
ATOM      9  C           0       4.763  -0.864  -0.278  0.00  0.00     0.002 C 
ATOM     10  C           0       3.551  -1.537  -0.311  0.00  0.00     0.016 C 
ATOM     11  C           0       2.346  -0.856  -0.212  0.00  0.00     0.024 C 
ATOM     12  C           0       1.078  -1.567  -0.321  0.00  0.00     0.157 C 
ATOM     13  N           0      -0.063  -0.975  -0.863  0.00  0.00    -0.323 N 
ATOM     14  HN          0      -0.120  -0.220  -1.471  0.00  0.00     0.169 HD
ATOM     15  C           0      -1.099  -1.698  -0.313  0.00  0.00     0.134 C 
ATOM     16  N           0      -0.594  -2.854   0.051  0.00  0.00    -0.262 N 
ATOM     17  HN          0      -1.136  -3.669   0.339  1.00  0.00     0.191 HD
ATOM     18  N           0       0.703  -2.800  -0.013  0.00  0.00    -0.184 N 
ATOM     19  C           0      -2.421  -1.103  -0.092  0.00  0.00     0.021 C 
ATOM     20  C           0      -3.552  -1.885   0.089  0.00  0.00     0.016 C 
ATOM     21  C           0      -4.804  -1.294   0.196  0.00  0.00     0.002 C 
ATOM     22  C           0      -4.948   0.058   0.079  0.00  0.00     0.012 C 
ATOM     23  C           0      -3.821   0.870  -0.121  0.00  0.00    -0.024 C 
ATOM     24  C           0      -3.946   2.227  -0.463  0.00  0.00     0.012 C 
ATOM     25  C           0      -2.829   3.004  -0.546  0.00  0.00     0.002 C 
ATOM     26  C           0      -1.575   2.498  -0.237  0.00  0.00     0.016 C 
ATOM     27  C           0      -1.409   1.165   0.150  0.00  0.00     0.027 C 
ATOM     28  C           0      -2.524   0.306  -0.007  0.00  0.00     0.002 C 
ATOM     29  C           0       2.349   0.545   0.030  0.00  0.00     0.002 C 
ENDROOT
BRANCH  18  30
ATOM     30  N           0       1.547  -3.895   0.215  0.00  0.00    -0.322 N 
ATOM     31  HN1         0       1.176  -4.739   0.516  0.00  0.00     0.179 HD
ATOM     32  HN2         0       2.503  -3.808   0.072  0.00  0.00     0.179 HD
ENDBRANCH  18  30
TORSDOF 1
