REMARK  2 active torsions:
REMARK  status: ('A' for Active; 'I' for Inactive)
REMARK    1  A    between atoms: C_9  and  O_10 
REMARK    2  A    between atoms: O_10  and  C_11 
ROOT
ATOM      1  O           0      -1.596  -0.228   1.654  0.00  0.00    -0.287 OA
ATOM      2  C           0      -1.515  -1.019   0.741  0.00  0.00     0.194 C 
ATOM      3  C           0      -0.253  -1.744   0.607  0.00  0.00     0.027 C 
ATOM      4  C           0      -0.318  -3.129   0.420  0.00  0.00     0.016 C 
ATOM      5  C           0       0.818  -3.903   0.269  0.00  0.00     0.002 C 
ATOM      6  C           0       2.055  -3.343   0.356  0.00  0.00     0.012 C 
ATOM      7  C           0       2.179  -1.966   0.611  0.00  0.00    -0.021 C 
ATOM      8  C           0       3.457  -1.426   0.842  0.00  0.00     0.049 C 
ATOM      9  C           0       3.611  -0.073   1.035  0.00  0.00     0.077 C 
ATOM     10  C           0       2.506   0.769   0.971  0.00  0.00     0.053 C 
ATOM     11  C           0       1.234   0.265   0.738  0.00  0.00     0.024 C 
ATOM     12  C           0       0.111   1.191   0.615  0.00  0.00     0.133 C 
ATOM     13  N           0      -0.161   2.377   1.108  0.00  0.00    -0.283 N 
ATOM     14  HN          0       0.513   2.997   1.557  1.00  0.00     0.188 HD
ATOM     15  N           0      -1.421   2.639   0.935  0.00  0.00    -0.283 N 
ATOM     16  HN          0      -1.906   3.461   1.295  1.00  0.00     0.188 HD
ATOM     17  C           0      -1.971   1.692   0.231  0.00  0.00     0.133 C 
ATOM     18  N           0      -0.925   0.939  -0.289  0.00  0.00    -0.325 N 
ATOM     19  HN          0      -0.913   0.364  -1.069  0.00  0.00     0.169 HD
ATOM     20  C           0      -3.359   1.280  -0.009  0.00  0.00     0.022 C 
ATOM     21  C           0      -4.408   2.181   0.091  0.00  0.00     0.023 C 
ATOM     22  C           0      -5.703   1.796  -0.227  0.00  0.00    -0.060 C 
ATOM     23  C           0      -6.834   2.778  -0.071  0.00  0.00     0.048 C 
ATOM     24  C           0      -5.957   0.541  -0.698  0.00  0.00     0.019 C 
ATOM     25  C           0      -4.909  -0.383  -0.836  0.00  0.00    -0.024 C 
ATOM     26  C           0      -5.094  -1.597  -1.520  0.00  0.00     0.012 C 
ATOM     27  C           0      -4.089  -2.516  -1.539  0.00  0.00     0.002 C 
ATOM     28  C           0      -2.907  -2.303  -0.847  0.00  0.00     0.016 C 
ATOM     29  C           0      -2.692  -1.124  -0.125  0.00  0.00     0.027 C 
ATOM     30  C           0      -3.630  -0.079  -0.303  0.00  0.00     0.002 C 
ATOM     31  C           0       1.028  -1.135   0.648  0.00  0.00     0.003 C 
ENDROOT
BRANCH   9  32
ATOM     32  O           0       4.844   0.442   1.280  0.00  0.00    -0.311 OA
BRANCH  32  33
ATOM     33  C           0       5.393   0.737   0.072  0.00  0.00     0.076 A 
ATOM     34  C           0       6.680   1.252   0.001  0.00  0.00     0.037 A 
ATOM     35  C           0       7.238   1.544  -1.228  0.00  0.00     0.003 A 
ATOM     36  C           0       6.512   1.335  -2.386  0.00  0.00     0.000 A 
ATOM     37  C           0       5.228   0.827  -2.317  0.00  0.00     0.003 A 
ATOM     38  C           0       4.667   0.527  -1.091  0.00  0.00     0.037 A 
ENDBRANCH  32  33
ENDBRANCH   9  32
TORSDOF 2
