REMARK  2 active torsions:
REMARK  status: ('A' for Active; 'I' for Inactive)
REMARK    1  A    between atoms: C_18  and  C_19 
REMARK    2  A    between atoms: C_19  and  O_22 
ROOT
ATOM      1  O           0      -0.635   0.048   1.545  0.00  0.00    -0.287 OA
ATOM      2  C           0      -0.707  -0.833   0.720  0.00  0.00     0.196 C 
ATOM      3  C           0       0.513  -1.590   0.450  0.00  0.00     0.039 A 
ATOM      4  C           0       0.415  -2.986   0.447  0.00  0.00     0.003 A 
ATOM      5  C           0       1.504  -3.799   0.192  0.00  0.00     0.000 A 
ATOM      6  C           0       2.735  -3.259  -0.014  0.00  0.00    -0.000 A 
ATOM      7  C           0       2.901  -1.863   0.031  0.00  0.00    -0.000 A 
ATOM      8  C           0       4.199  -1.329  -0.068  0.00  0.00    -0.004 A 
ATOM      9  C           0       4.385   0.017  -0.083  0.00  0.00    -0.023 A 
ATOM     10  C           0       5.779   0.582  -0.172  0.00  0.00     0.031 C 
ATOM     11  C           0       3.298   0.878  -0.024  0.00  0.00     0.006 A 
ATOM     12  C           0       2.002   0.392   0.078  0.00  0.00     0.032 A 
ATOM     13  C           0       0.870   1.316   0.100  0.00  0.00     0.133 C 
ATOM     14  N           0       0.670   2.528   0.559  0.00  0.00    -0.283 N 
ATOM     15  HN          0       1.405   3.169   0.858  1.00  0.00     0.188 HD
ATOM     16  N           0      -0.599   2.791   0.577  0.00  0.00    -0.283 N 
ATOM     17  HN          0      -1.019   3.640   0.956  1.00  0.00     0.188 HD
ATOM     18  C           0      -1.255   1.804   0.036  0.00  0.00     0.133 C 
ATOM     19  N           0      -0.306   1.007  -0.594  0.00  0.00    -0.325 N 
ATOM     20  HN          0      -0.424   0.375  -1.319  0.00  0.00     0.169 HD
ATOM     21  C           0      -2.664   1.393   0.055  0.00  0.00     0.034 C 
ATOM     22  C           0      -3.685   2.314   0.222  0.00  0.00     0.003 C 
ATOM     23  C           0      -5.014   1.917   0.149  0.00  0.00     0.000 C 
ATOM     24  C           0      -5.336   0.622  -0.135  0.00  0.00     0.000 C 
ATOM     25  C           0      -4.321  -0.328  -0.333  0.00  0.00     0.000 C 
ATOM     26  C           0      -4.611  -1.608  -0.836  0.00  0.00     0.000 C 
ATOM     27  C           0      -3.618  -2.538  -0.918  0.00  0.00     0.000 C 
ATOM     28  C           0      -2.338  -2.264  -0.461  0.00  0.00     0.003 C 
ATOM     29  C           0      -2.012  -1.016   0.080  0.00  0.00     0.039 C 
ATOM     30  C           0      -2.973   0.015  -0.050  0.00  0.00     0.006 C 
ATOM     31  C           0       1.780  -1.007   0.187  0.00  0.00     0.006 A 
ENDROOT
BRANCH  11  32
ATOM     32  C           0       3.546   2.365  -0.068  0.00  0.00     0.164 C 
BRANCH  32  33
ATOM     33  O           0       3.561   2.806  -1.427  0.00  0.00    -0.378 OA
ATOM     34  H           0       3.722   3.759  -1.410  0.00  0.00     0.211 HD
ENDBRANCH  32  33
ENDBRANCH  11  32
TORSDOF 2
