MODEL 1
REMARK VINA RESULT:      -8.5      0.000      0.000
REMARK  2 active torsions:
REMARK  status: ('A' for Active; 'I' for Inactive)
REMARK    1  A    between atoms: C_9  and  C_10 
REMARK    2  A    between atoms: C_10  and  O_11 
ROOT
ATOM      1  O           0     113.470 174.815 140.031  0.00  0.00    -0.287 OA
ATOM      2  C           0     112.434 174.264 140.310  0.00  0.00     0.194 C 
ATOM      3  C           0     111.706 173.614 139.221  0.00  0.00     0.027 A 
ATOM      4  C           0     111.301 172.289 139.414  0.00  0.00     0.016 A 
ATOM      5  C           0     110.572 171.598 138.463  0.00  0.00     0.002 A 
ATOM      6  C           0     110.262 172.178 137.271  0.00  0.00     0.012 A 
ATOM      7  C           0     110.705 173.483 136.996  0.00  0.00    -0.023 A 
ATOM      8  C           0     110.479 174.027 135.718  0.00  0.00     0.021 A 
ATOM      9  C           0     110.875 175.295 135.430  0.00  0.00    -0.033 A 
ATOM     10  C           0     111.479 176.075 136.403  0.00  0.00     0.025 A 
ATOM     11  C           0     111.706 175.586 137.682  0.00  0.00     0.022 A 
ATOM     12  C           0     112.313 176.446 138.690  0.00  0.00     0.134 C 
ATOM     13  N           0     113.324 177.283 138.700  0.00  0.00    -0.283 N 
ATOM     14  HN          0     113.770 177.681 137.874  1.00  0.00     0.188 HD
ATOM     15  N           0     113.666 177.525 139.928  0.00  0.00    -0.283 N 
ATOM     16  HN          0     114.485 178.060 140.216  1.00  0.00     0.188 HD
ATOM     17  C           0     112.802 176.978 140.737  0.00  0.00     0.134 C 
ATOM     18  N           0     111.719 176.621 139.946  0.00  0.00    -0.320 N 
ATOM     19  C           0     110.299 176.530 140.301  0.00  0.00     0.159 C 
ATOM     20  C           0     112.858 176.635 142.162  0.00  0.00     0.022 C 
ATOM     21  C           0     113.437 177.497 143.081  0.00  0.00     0.023 C 
ATOM     22  C           0     113.431 177.201 144.436  0.00  0.00    -0.060 C 
ATOM     23  C           0     114.096 178.137 145.409  0.00  0.00     0.048 C 
ATOM     24  C           0     112.811 176.076 144.895  0.00  0.00     0.019 C 
ATOM     25  C           0     112.199 175.193 143.992  0.00  0.00    -0.024 C 
ATOM     26  C           0     111.394 174.138 144.456  0.00  0.00     0.012 C 
ATOM     27  C           0     110.890 173.236 143.568  0.00  0.00     0.002 C 
ATOM     28  C           0     111.200 173.311 142.218  0.00  0.00     0.016 C 
ATOM     29  C           0     112.017 174.328 141.714  0.00  0.00     0.027 C 
ATOM     30  C           0     112.368 175.379 142.595  0.00  0.00     0.002 C 
ATOM     31  C           0     111.382 174.239 137.990  0.00  0.00     0.002 A 
ENDROOT
BRANCH   9  32
ATOM     32  C           0     110.647 175.859 134.053  0.00  0.00     0.202 C 
BRANCH  32  33
ATOM     33  O           0     111.027 177.235 134.031  0.00  0.00    -0.396 OA
ATOM     34  H           0     111.312 177.433 133.129  0.00  0.00     0.209 HD
ENDBRANCH  32  33
ENDBRANCH   9  32
TORSDOF 2
ENDMDL
MODEL 2
REMARK VINA RESULT:      -8.4      1.572      6.614
REMARK  2 active torsions:
REMARK  status: ('A' for Active; 'I' for Inactive)
REMARK    1  A    between atoms: C_9  and  C_10 
REMARK    2  A    between atoms: C_10  and  O_11 
ROOT
ATOM      1  O           0     110.491 175.914 140.597  0.00  0.00    -0.287 OA
ATOM      2  C           0     110.849 174.772 140.744  0.00  0.00     0.194 C 
ATOM      3  C           0     111.288 174.374 142.081  0.00  0.00     0.027 A 
ATOM      4  C           0     110.727 173.215 142.628  0.00  0.00     0.016 A 
ATOM      5  C           0     111.105 172.730 143.866  0.00  0.00     0.002 A 
ATOM      6  C           0     112.013 173.402 144.626  0.00  0.00     0.012 A 
ATOM      7  C           0     112.557 174.610 144.156  0.00  0.00    -0.023 A 
ATOM      8  C           0     113.404 175.352 144.999  0.00  0.00     0.021 A 
ATOM      9  C           0     113.963 176.512 144.562  0.00  0.00    -0.033 A 
ATOM     10  C           0     113.727 176.959 143.272  0.00  0.00     0.025 A 
ATOM     11  C           0     112.912 176.250 142.401  0.00  0.00     0.022 A 
ATOM     12  C           0     112.713 176.731 141.040  0.00  0.00     0.134 C 
ATOM     13  N           0     112.470 177.904 140.503  0.00  0.00    -0.283 N 
ATOM     14  HN          0     112.606 178.804 140.963  1.00  0.00     0.188 HD
ATOM     15  N           0     112.030 177.738 139.294  0.00  0.00    -0.283 N 
ATOM     16  HN          0     111.670 178.479 138.692  1.00  0.00     0.188 HD
ATOM     17  C           0     112.119 176.479 138.967  0.00  0.00     0.134 C 
ATOM     18  N           0     112.920 175.893 139.937  0.00  0.00    -0.320 N 
ATOM     19  C           0     113.824 174.743 139.826  0.00  0.00     0.159 C 
ATOM     20  C           0     111.481 175.681 137.914  0.00  0.00     0.022 C 
ATOM     21  C           0     111.328 176.185 136.632  0.00  0.00     0.023 C 
ATOM     22  C           0     110.784 175.405 135.622  0.00  0.00    -0.060 C 
ATOM     23  C           0     110.597 175.987 134.246  0.00  0.00     0.048 C 
ATOM     24  C           0     110.432 174.109 135.862  0.00  0.00     0.019 C 
ATOM     25  C           0     110.593 173.564 137.145  0.00  0.00    -0.024 C 
ATOM     26  C           0     110.420 172.186 137.365  0.00  0.00     0.012 C 
ATOM     27  C           0     110.484 171.695 138.634  0.00  0.00     0.002 C 
ATOM     28  C           0     110.666 172.538 139.719  0.00  0.00     0.016 C 
ATOM     29  C           0     110.817 173.918 139.552  0.00  0.00     0.027 C 
ATOM     30  C           0     110.960 174.402 138.230  0.00  0.00     0.002 C 
ATOM     31  C           0     112.246 175.080 142.852  0.00  0.00     0.002 A 
ENDROOT
BRANCH   9  32
ATOM     32  C           0     114.851 177.309 145.480  0.00  0.00     0.202 C 
BRANCH  32  33
ATOM     33  O           0     114.735 178.698 145.169  0.00  0.00    -0.396 OA
ATOM     34  H           0     114.432 178.756 144.253  0.00  0.00     0.209 HD
ENDBRANCH  32  33
ENDBRANCH   9  32
TORSDOF 2
ENDMDL
MODEL 3
REMARK VINA RESULT:      -7.4     10.271     13.030
REMARK  2 active torsions:
REMARK  status: ('A' for Active; 'I' for Inactive)
REMARK    1  A    between atoms: C_9  and  C_10 
REMARK    2  A    between atoms: C_10  and  O_11 
ROOT
ATOM      1  O           0     109.842 162.465 137.179  0.00  0.00    -0.287 OA
ATOM      2  C           0     110.105 163.533 136.684  0.00  0.00     0.194 C 
ATOM      3  C           0     110.295 163.571 135.235  0.00  0.00     0.027 A 
ATOM      4  C           0     109.586 164.539 134.515  0.00  0.00     0.016 A 
ATOM      5  C           0     109.726 164.686 133.147  0.00  0.00     0.002 A 
ATOM      6  C           0     110.535 163.850 132.440  0.00  0.00     0.012 A 
ATOM      7  C           0     111.217 162.814 133.102  0.00  0.00    -0.023 A 
ATOM      8  C           0     111.956 161.887 132.344  0.00  0.00     0.021 A 
ATOM      9  C           0     112.645 160.890 132.960  0.00  0.00    -0.033 A 
ATOM     10  C           0     112.649 160.795 134.343  0.00  0.00     0.025 A 
ATOM     11  C           0     111.949 161.697 135.130  0.00  0.00     0.022 A 
ATOM     12  C           0     112.004 161.588 136.582  0.00  0.00     0.134 C 
ATOM     13  N           0     111.920 160.594 137.436  0.00  0.00    -0.283 N 
ATOM     14  HN          0     112.030 159.607 137.206  1.00  0.00     0.188 HD
ATOM     15  N           0     111.676 161.066 138.619  0.00  0.00    -0.283 N 
ATOM     16  HN          0     111.463 160.506 139.444  1.00  0.00     0.188 HD
ATOM     17  C           0     111.744 162.368 138.591  0.00  0.00     0.134 C 
ATOM     18  N           0     112.341 162.689 137.380  0.00  0.00    -0.320 N 
ATOM     19  C           0     113.183 163.839 137.034  0.00  0.00     0.159 C 
ATOM     20  C           0     111.243 163.406 139.498  0.00  0.00     0.022 C 
ATOM     21  C           0     111.332 163.255 140.874  0.00  0.00     0.023 C 
ATOM     22  C           0     110.917 164.266 141.728  0.00  0.00    -0.060 C 
ATOM     23  C           0     110.992 164.064 143.219  0.00  0.00     0.048 C 
ATOM     24  C           0     110.456 165.449 141.229  0.00  0.00     0.019 C 
ATOM     25  C           0     110.373 165.640 139.841  0.00  0.00    -0.024 C 
ATOM     26  C           0     110.087 166.909 139.308  0.00  0.00     0.012 C 
ATOM     27  C           0     109.914 167.051 137.965  0.00  0.00     0.002 C 
ATOM     28  C           0     109.963 165.955 137.117  0.00  0.00     0.016 C 
ATOM     29  C           0     110.219 164.669 137.604  0.00  0.00     0.027 C 
ATOM     30  C           0     110.604 164.551 138.960  0.00  0.00     0.002 C 
ATOM     31  C           0     111.152 162.699 134.516  0.00  0.00     0.002 A 
ENDROOT
BRANCH   9  32
ATOM     32  C           0     113.414 159.891 132.138  0.00  0.00     0.202 C 
BRANCH  32  33
ATOM     33  O           0     114.669 159.622 132.765  0.00  0.00    -0.396 OA
ATOM     34  H           0     114.889 158.701 132.568  0.00  0.00     0.209 HD
ENDBRANCH  32  33
ENDBRANCH   9  32
TORSDOF 2
ENDMDL
MODEL 4
REMARK VINA RESULT:      -7.4      7.253     11.096
REMARK  2 active torsions:
REMARK  status: ('A' for Active; 'I' for Inactive)
REMARK    1  A    between atoms: C_9  and  C_10 
REMARK    2  A    between atoms: C_10  and  O_11 
ROOT
ATOM      1  O           0     108.983 165.952 141.744  0.00  0.00    -0.287 OA
ATOM      2  C           0     110.043 165.574 142.177  0.00  0.00     0.194 C 
ATOM      3  C           0     110.460 166.096 143.478  0.00  0.00     0.027 A 
ATOM      4  C           0     110.870 165.171 144.444  0.00  0.00     0.016 A 
ATOM      5  C           0     111.323 165.564 145.690  0.00  0.00     0.002 A 
ATOM      6  C           0     111.339 166.880 146.039  0.00  0.00     0.012 A 
ATOM      7  C           0     110.872 167.847 145.132  0.00  0.00    -0.023 A 
ATOM      8  C           0     110.784 169.188 145.547  0.00  0.00     0.021 A 
ATOM      9  C           0     110.358 170.148 144.683  0.00  0.00    -0.033 A 
ATOM     10  C           0     110.034 169.818 143.377  0.00  0.00     0.025 A 
ATOM     11  C           0     110.122 168.511 142.920  0.00  0.00     0.022 A 
ATOM     12  C           0     109.806 168.206 141.531  0.00  0.00     0.134 C 
ATOM     13  N           0     108.848 168.557 140.704  0.00  0.00    -0.283 N 
ATOM     14  HN          0     108.219 169.350 140.831  1.00  0.00     0.188 HD
ATOM     15  N           0     108.829 167.738 139.699  0.00  0.00    -0.283 N 
ATOM     16  HN          0     108.121 167.722 138.965  1.00  0.00     0.188 HD
ATOM     17  C           0     109.856 166.936 139.770  0.00  0.00     0.134 C 
ATOM     18  N           0     110.698 167.487 140.725  0.00  0.00    -0.320 N 
ATOM     19  C           0     112.159 167.415 140.827  0.00  0.00     0.159 C 
ATOM     20  C           0     110.149 165.644 139.141  0.00  0.00     0.022 C 
ATOM     21  C           0     109.837 165.412 137.810  0.00  0.00     0.023 C 
ATOM     22  C           0     110.175 164.213 137.200  0.00  0.00    -0.060 C 
ATOM     23  C           0     109.795 163.972 135.763  0.00  0.00     0.048 C 
ATOM     24  C           0     110.864 163.256 137.887  0.00  0.00     0.019 C 
ATOM     25  C           0     111.211 163.470 139.230  0.00  0.00    -0.024 C 
ATOM     26  C           0     112.081 162.588 139.894  0.00  0.00     0.012 C 
ATOM     27  C           0     112.327 162.758 141.223  0.00  0.00     0.002 C 
ATOM     28  C           0     111.692 163.757 141.945  0.00  0.00     0.016 C 
ATOM     29  C           0     110.798 164.642 141.333  0.00  0.00     0.027 C 
ATOM     30  C           0     110.703 164.600 139.922  0.00  0.00     0.002 C 
ATOM     31  C           0     110.482 167.472 143.818  0.00  0.00     0.002 A 
ENDROOT
BRANCH   9  32
ATOM     32  C           0     110.248 171.577 145.144  0.00  0.00     0.202 C 
BRANCH  32  33
ATOM     33  O           0     108.988 172.114 144.738  0.00  0.00    -0.396 OA
ATOM     34  H           0     109.096 173.074 144.689  0.00  0.00     0.209 HD
ENDBRANCH  32  33
ENDBRANCH   9  32
TORSDOF 2
ENDMDL
MODEL 5
REMARK VINA RESULT:      -7.4      9.687     12.031
REMARK  2 active torsions:
REMARK  status: ('A' for Active; 'I' for Inactive)
REMARK    1  A    between atoms: C_9  and  C_10 
REMARK    2  A    between atoms: C_10  and  O_11 
ROOT
ATOM      1  O           0     110.174 163.222 141.922  0.00  0.00    -0.287 OA
ATOM      2  C           0     110.490 164.323 141.546  0.00  0.00     0.194 C 
ATOM      3  C           0     110.684 164.511 140.109  0.00  0.00     0.027 A 
ATOM      4  C           0     110.025 165.585 139.501  0.00  0.00     0.016 A 
ATOM      5  C           0     110.174 165.873 138.157  0.00  0.00     0.002 A 
ATOM      6  C           0     110.943 165.081 137.360  0.00  0.00     0.012 A 
ATOM      7  C           0     111.572 163.948 137.903  0.00  0.00    -0.023 A 
ATOM      8  C           0     112.266 163.074 137.046  0.00  0.00     0.021 A 
ATOM      9  C           0     112.904 161.983 137.546  0.00  0.00    -0.033 A 
ATOM     10  C           0     112.902 161.737 138.910  0.00  0.00     0.025 A 
ATOM     11  C           0     112.245 162.581 139.794  0.00  0.00     0.022 A 
ATOM     12  C           0     112.292 162.311 141.225  0.00  0.00     0.134 C 
ATOM     13  N           0     112.158 161.235 141.965  0.00  0.00    -0.283 N 
ATOM     14  HN          0     112.220 160.275 141.628  1.00  0.00     0.188 HD
ATOM     15  N           0     111.935 161.587 143.194  0.00  0.00    -0.283 N 
ATOM     16  HN          0     111.694 160.950 143.954  1.00  0.00     0.188 HD
ATOM     17  C           0     112.067 162.879 143.308  0.00  0.00     0.134 C 
ATOM     18  N           0     112.681 163.300 142.138  0.00  0.00    -0.320 N 
ATOM     19  C           0     113.579 164.439 141.916  0.00  0.00     0.159 C 
ATOM     20  C           0     111.615 163.834 144.325  0.00  0.00     0.022 C 
ATOM     21  C           0     111.694 163.530 145.676  0.00  0.00     0.023 C 
ATOM     22  C           0     111.328 164.460 146.637  0.00  0.00    -0.060 C 
ATOM     23  C           0     111.391 164.092 148.096  0.00  0.00     0.048 C 
ATOM     24  C           0     110.927 165.711 146.271  0.00  0.00     0.019 C 
ATOM     25  C           0     110.855 166.057 144.913  0.00  0.00    -0.024 C 
ATOM     26  C           0     110.632 167.389 144.523  0.00  0.00     0.012 C 
ATOM     27  C           0     110.469 167.686 143.204  0.00  0.00     0.002 C 
ATOM     28  C           0     110.466 166.688 142.241  0.00  0.00     0.016 C 
ATOM     29  C           0     110.658 165.345 142.584  0.00  0.00     0.027 C 
ATOM     30  C           0     111.035 165.060 143.918  0.00  0.00     0.002 C 
ATOM     31  C           0     111.499 163.682 139.296  0.00  0.00     0.002 A 
ENDROOT
BRANCH   9  32
ATOM     32  C           0     113.626 161.044 136.617  0.00  0.00     0.202 C 
BRANCH  32  33
ATOM     33  O           0     114.392 160.112 137.381  0.00  0.00    -0.396 OA
ATOM     34  H           0     115.041 159.722 136.779  0.00  0.00     0.209 HD
ENDBRANCH  32  33
ENDBRANCH   9  32
TORSDOF 2
ENDMDL
MODEL 6
REMARK VINA RESULT:      -7.2      4.805      8.282
REMARK  2 active torsions:
REMARK  status: ('A' for Active; 'I' for Inactive)
REMARK    1  A    between atoms: C_9  and  C_10 
REMARK    2  A    between atoms: C_10  and  O_11 
ROOT
ATOM      1  O           0     108.682 169.538 137.440  0.00  0.00    -0.287 OA
ATOM      2  C           0     109.667 169.750 138.103  0.00  0.00     0.194 C 
ATOM      3  C           0     110.066 171.145 138.284  0.00  0.00     0.027 A 
ATOM      4  C           0     110.315 171.582 139.589  0.00  0.00     0.016 A 
ATOM      5  C           0     110.738 172.870 139.864  0.00  0.00     0.002 A 
ATOM      6  C           0     110.880 173.781 138.863  0.00  0.00     0.012 A 
ATOM      7  C           0     110.575 173.416 137.540  0.00  0.00    -0.023 A 
ATOM      8  C           0     110.615 174.398 136.533  0.00  0.00     0.021 A 
ATOM      9  C           0     110.347 174.069 135.241  0.00  0.00    -0.033 A 
ATOM     10  C           0     110.063 172.756 134.900  0.00  0.00     0.025 A 
ATOM     11  C           0     110.031 171.752 135.857  0.00  0.00     0.022 A 
ATOM     12  C           0     109.762 170.377 135.458  0.00  0.00     0.134 C 
ATOM     13  N           0     108.898 169.802 134.653  0.00  0.00    -0.283 N 
ATOM     14  HN          0     108.355 170.278 133.933  1.00  0.00     0.188 HD
ATOM     15  N           0     108.844 168.534 134.919  0.00  0.00    -0.283 N 
ATOM     16  HN          0     108.181 167.875 134.511  1.00  0.00     0.188 HD
ATOM     17  C           0     109.769 168.231 135.787  0.00  0.00     0.134 C 
ATOM     18  N           0     110.612 169.331 135.838  0.00  0.00    -0.320 N 
ATOM     19  C           0     112.049 169.389 136.130  0.00  0.00     0.159 C 
ATOM     20  C           0     109.952 167.081 136.678  0.00  0.00     0.022 C 
ATOM     21  C           0     109.692 165.791 136.241  0.00  0.00     0.023 C 
ATOM     22  C           0     109.928 164.700 137.065  0.00  0.00    -0.060 C 
ATOM     23  C           0     109.606 163.312 136.579  0.00  0.00     0.048 C 
ATOM     24  C           0     110.466 164.874 138.307  0.00  0.00     0.019 C 
ATOM     25  C           0     110.758 166.167 138.770  0.00  0.00    -0.024 C 
ATOM     26  C           0     111.486 166.354 139.959  0.00  0.00     0.012 C 
ATOM     27  C           0     111.674 167.614 140.441  0.00  0.00     0.002 C 
ATOM     28  C           0     111.114 168.713 139.807  0.00  0.00     0.016 C 
ATOM     29  C           0     110.361 168.573 138.637  0.00  0.00     0.027 C 
ATOM     30  C           0     110.341 167.299 138.023  0.00  0.00     0.002 C 
ATOM     31  C           0     110.221 172.077 137.226  0.00  0.00     0.002 A 
ENDROOT
BRANCH   9  32
ATOM     32  C           0     110.371 175.131 134.175  0.00  0.00     0.202 C 
BRANCH  32  33
ATOM     33  O           0     109.892 176.362 134.718  0.00  0.00    -0.396 OA
ATOM     34  H           0     110.201 177.066 134.132  0.00  0.00     0.209 HD
ENDBRANCH  32  33
ENDBRANCH   9  32
TORSDOF 2
ENDMDL
MODEL 7
REMARK VINA RESULT:      -7.2      8.936     12.179
REMARK  2 active torsions:
REMARK  status: ('A' for Active; 'I' for Inactive)
REMARK    1  A    between atoms: C_9  and  C_10 
REMARK    2  A    between atoms: C_10  and  O_11 
ROOT
ATOM      1  O           0     109.194 164.856 141.802  0.00  0.00    -0.287 OA
ATOM      2  C           0     110.205 164.303 141.448  0.00  0.00     0.194 C 
ATOM      3  C           0     110.992 163.621 142.475  0.00  0.00     0.027 A 
ATOM      4  C           0     111.370 162.298 142.228  0.00  0.00     0.016 A 
ATOM      5  C           0     112.149 161.579 143.116  0.00  0.00     0.002 A 
ATOM      6  C           0     112.538 162.129 144.299  0.00  0.00     0.012 A 
ATOM      7  C           0     112.127 163.432 144.630  0.00  0.00    -0.023 A 
ATOM      8  C           0     112.438 163.944 145.903  0.00  0.00     0.021 A 
ATOM      9  C           0     112.074 165.209 146.243  0.00  0.00    -0.033 A 
ATOM     10  C           0     111.419 166.017 145.327  0.00  0.00     0.025 A 
ATOM     11  C           0     111.108 165.559 144.054  0.00  0.00     0.022 A 
ATOM     12  C           0     110.449 166.446 143.105  0.00  0.00     0.134 C 
ATOM     13  N           0     109.448 167.293 143.175  0.00  0.00    -0.283 N 
ATOM     14  HN          0     109.058 167.676 144.037  1.00  0.00     0.188 HD
ATOM     15  N           0     109.033 167.565 141.977  0.00  0.00    -0.283 N 
ATOM     16  HN          0     108.203 168.115 141.752  1.00  0.00     0.188 HD
ATOM     17  C           0     109.840 167.029 141.104  0.00  0.00     0.134 C 
ATOM     18  N           0     110.965 166.644 141.818  0.00  0.00    -0.320 N 
ATOM     19  C           0     112.360 166.548 141.374  0.00  0.00     0.159 C 
ATOM     20  C           0     109.692 166.719 139.678  0.00  0.00     0.022 C 
ATOM     21  C           0     109.066 167.607 138.817  0.00  0.00     0.023 C 
ATOM     22  C           0     108.985 167.341 137.457  0.00  0.00    -0.060 C 
ATOM     23  C           0     108.271 168.305 136.548  0.00  0.00     0.048 C 
ATOM     24  C           0     109.563 166.221 136.936  0.00  0.00     0.019 C 
ATOM     25  C           0     110.221 165.312 137.780  0.00  0.00    -0.024 C 
ATOM     26  C           0     110.984 164.260 137.244  0.00  0.00     0.012 C 
ATOM     27  C           0     111.533 163.334 138.078  0.00  0.00     0.002 C 
ATOM     28  C           0     111.308 163.381 139.446  0.00  0.00     0.016 C 
ATOM     29  C           0     110.534 164.395 140.022  0.00  0.00     0.027 C 
ATOM     30  C           0     110.141 165.468 139.188  0.00  0.00     0.002 C 
ATOM     31  C           0     111.398 164.216 143.697  0.00  0.00     0.002 A 
ENDROOT
BRANCH   9  32
ATOM     32  C           0     112.393 165.739 147.615  0.00  0.00     0.202 C 
BRANCH  32  33
ATOM     33  O           0     111.577 166.879 147.888  0.00  0.00    -0.396 OA
ATOM     34  H           0     111.387 166.867 148.836  0.00  0.00     0.209 HD
ENDBRANCH  32  33
ENDBRANCH   9  32
TORSDOF 2
ENDMDL
MODEL 8
REMARK VINA RESULT:      -7.2      2.477      4.315
REMARK  2 active torsions:
REMARK  status: ('A' for Active; 'I' for Inactive)
REMARK    1  A    between atoms: C_9  and  C_10 
REMARK    2  A    between atoms: C_10  and  O_11 
ROOT
ATOM      1  O           0     110.306 174.844 138.480  0.00  0.00    -0.287 OA
ATOM      2  C           0     111.370 175.378 138.286  0.00  0.00     0.194 C 
ATOM      3  C           0     111.854 175.426 136.907  0.00  0.00     0.027 A 
ATOM      4  C           0     112.273 176.666 136.411  0.00  0.00     0.016 A 
ATOM      5  C           0     112.786 176.811 135.136  0.00  0.00     0.002 A 
ATOM      6  C           0     112.856 175.745 134.291  0.00  0.00     0.012 A 
ATOM      7  C           0     112.384 174.490 134.713  0.00  0.00    -0.023 A 
ATOM      8  C           0     112.355 173.426 133.793  0.00  0.00     0.021 A 
ATOM      9  C           0     111.926 172.195 134.179  0.00  0.00    -0.033 A 
ATOM     10  C           0     111.540 171.970 135.491  0.00  0.00     0.025 A 
ATOM     11  C           0     111.570 172.986 136.436  0.00  0.00     0.022 A 
ATOM     12  C           0     111.190 172.705 137.815  0.00  0.00     0.134 C 
ATOM     13  N           0     110.213 172.039 138.385  0.00  0.00    -0.283 N 
ATOM     14  HN          0     109.614 171.356 137.921  1.00  0.00     0.188 HD
ATOM     15  N           0     110.128 172.387 139.631  0.00  0.00    -0.283 N 
ATOM     16  HN          0     109.391 172.098 140.275  1.00  0.00     0.188 HD
ATOM     17  C           0     111.131 173.164 139.936  0.00  0.00     0.134 C 
ATOM     18  N           0     112.027 173.052 138.883  0.00  0.00    -0.320 N 
ATOM     19  C           0     113.489 173.178 138.888  0.00  0.00     0.159 C 
ATOM     20  C           0     111.359 174.099 141.042  0.00  0.00     0.022 C 
ATOM     21  C           0     110.988 173.775 142.338  0.00  0.00     0.023 C 
ATOM     22  C           0     111.264 174.634 143.392  0.00  0.00    -0.060 C 
ATOM     23  C           0     110.821 174.274 144.786  0.00  0.00     0.048 C 
ATOM     24  C           0     111.949 175.794 143.179  0.00  0.00     0.019 C 
ATOM     25  C           0     112.355 176.141 141.881  0.00  0.00    -0.024 C 
ATOM     26  C           0     113.223 177.226 141.668  0.00  0.00     0.012 C 
ATOM     27  C           0     113.526 177.605 140.395  0.00  0.00     0.002 C 
ATOM     28  C           0     112.951 176.971 139.304  0.00  0.00     0.016 C 
ATOM     29  C           0     112.062 175.903 139.467  0.00  0.00     0.027 C 
ATOM     30  C           0     111.910 175.376 140.771  0.00  0.00     0.002 C 
ATOM     31  C           0     111.932 174.302 136.046  0.00  0.00     0.002 A 
ENDROOT
BRANCH   9  32
ATOM     32  C           0     111.879 171.070 133.181  0.00  0.00     0.202 C 
BRANCH  32  33
ATOM     33  O           0     110.571 170.495 133.171  0.00  0.00    -0.396 OA
ATOM     34  H           0     109.964 171.184 132.868  0.00  0.00     0.209 HD
ENDBRANCH  32  33
ENDBRANCH   9  32
TORSDOF 2
ENDMDL
MODEL 9
REMARK VINA RESULT:      -7.2      3.122      5.728
REMARK  2 active torsions:
REMARK  status: ('A' for Active; 'I' for Inactive)
REMARK    1  A    between atoms: C_9  and  C_10 
REMARK    2  A    between atoms: C_10  and  O_11 
ROOT
ATOM      1  O           0     109.338 172.212 139.034  0.00  0.00    -0.287 OA
ATOM      2  C           0     110.151 172.692 139.784  0.00  0.00     0.194 C 
ATOM      3  C           0     110.592 174.059 139.509  0.00  0.00     0.027 A 
ATOM      4  C           0     110.557 174.975 140.565  0.00  0.00     0.016 A 
ATOM      5  C           0     110.991 176.280 140.420  0.00  0.00     0.002 A 
ATOM      6  C           0     111.429 176.735 139.214  0.00  0.00     0.012 A 
ATOM      7  C           0     111.420 175.876 138.100  0.00  0.00    -0.023 A 
ATOM      8  C           0     111.764 176.391 136.837  0.00  0.00     0.021 A 
ATOM      9  C           0     111.787 175.579 135.747  0.00  0.00    -0.033 A 
ATOM     10  C           0     111.500 174.229 135.876  0.00  0.00     0.025 A 
ATOM     11  C           0     111.173 173.675 137.105  0.00  0.00     0.022 A 
ATOM     12  C           0     110.910 172.246 137.210  0.00  0.00     0.134 C 
ATOM     13  N           0     110.222 171.380 136.502  0.00  0.00    -0.283 N 
ATOM     14  HN          0     109.899 171.523 135.545  1.00  0.00     0.188 HD
ATOM     15  N           0     110.020 170.313 137.211  0.00  0.00    -0.283 N 
ATOM     16  HN          0     109.427 169.529 136.938  1.00  0.00     0.188 HD
ATOM     17  C           0     110.690 170.397 138.327  0.00  0.00     0.134 C 
ATOM     18  N           0     111.572 171.454 138.157  0.00  0.00    -0.320 N 
ATOM     19  C           0     112.899 171.661 138.747  0.00  0.00     0.159 C 
ATOM     20  C           0     110.576 169.689 139.606  0.00  0.00     0.022 C 
ATOM     21  C           0     110.338 168.324 139.647  0.00  0.00     0.023 C 
ATOM     22  C           0     110.296 167.645 140.857  0.00  0.00    -0.060 C 
ATOM     23  C           0     110.001 166.169 140.876  0.00  0.00     0.048 C 
ATOM     24  C           0     110.537 168.303 142.027  0.00  0.00     0.019 C 
ATOM     25  C           0     110.801 169.681 142.017  0.00  0.00    -0.024 C 
ATOM     26  C           0     111.239 170.335 143.182  0.00  0.00     0.012 C 
ATOM     27  C           0     111.395 171.688 143.175  0.00  0.00     0.002 C 
ATOM     28  C           0     111.079 172.439 142.053  0.00  0.00     0.016 C 
ATOM     29  C           0     110.615 171.835 140.880  0.00  0.00     0.027 C 
ATOM     30  C           0     110.652 170.422 140.816  0.00  0.00     0.002 C 
ATOM     31  C           0     111.057 174.511 138.247  0.00  0.00     0.002 A 
ENDROOT
BRANCH   9  32
ATOM     32  C           0     112.136 176.145 134.396  0.00  0.00     0.202 C 
BRANCH  32  33
ATOM     33  O           0     113.096 177.191 134.551  0.00  0.00    -0.396 OA
ATOM     34  H           0     113.533 177.047 135.401  0.00  0.00     0.209 HD
ENDBRANCH  32  33
ENDBRANCH   9  32
TORSDOF 2
ENDMDL
