REMARK  3 active torsions:
REMARK  status: ('A' for Active; 'I' for Inactive)
REMARK    1  A    between atoms: C_9  and  O_10 
REMARK    2  A    between atoms: O_10  and  C_11 
REMARK    3  A    between atoms: C_25  and  O_26 
ROOT
ATOM      1  O           0      -0.420  -0.130   1.447  0.00  0.00    -0.287 OA
ATOM      2  C           0      -0.350   0.820   0.701  0.00  0.00     0.194 C 
ATOM      3  C           0       0.979   1.384   0.472  0.00  0.00     0.027 C 
ATOM      4  C           0       1.117   2.773   0.565  0.00  0.00     0.016 C 
ATOM      5  C           0       2.326   3.407   0.348  0.00  0.00     0.002 C 
ATOM      6  C           0       3.450   2.685   0.093  0.00  0.00     0.012 C 
ATOM      7  C           0       3.384   1.280   0.062  0.00  0.00    -0.021 C 
ATOM      8  C           0       4.576   0.542  -0.051  0.00  0.00     0.049 C 
ATOM      9  C           0       4.532  -0.830  -0.143  0.00  0.00     0.070 C 
ATOM     10  C           0       3.306  -1.487  -0.160  0.00  0.00     0.053 C 
ATOM     11  C           0       2.113  -0.783  -0.057  0.00  0.00     0.024 C 
ATOM     12  C           0       0.846  -1.505  -0.143  0.00  0.00     0.133 C 
ATOM     13  N           0       0.458  -2.724   0.153  0.00  0.00    -0.283 N 
ATOM     14  HN          0       1.080  -3.511   0.340  1.00  0.00     0.188 HD
ATOM     15  N           0      -0.839  -2.774   0.171  0.00  0.00    -0.283 N 
ATOM     16  HN          0      -1.393  -3.584   0.450  1.00  0.00     0.188 HD
ATOM     17  C           0      -1.325  -1.630  -0.223  0.00  0.00     0.133 C 
ATOM     18  N           0      -0.261  -0.926  -0.773  0.00  0.00    -0.325 N 
ATOM     19  HN          0      -0.273  -0.201  -1.414  0.00  0.00     0.169 HD
ATOM     20  C           0      -2.646  -0.998  -0.115  0.00  0.00     0.024 C 
ATOM     21  C           0      -3.798  -1.756   0.010  0.00  0.00     0.053 C 
ATOM     22  C           0      -5.051  -1.144   0.023  0.00  0.00     0.070 C 
ATOM     23  C           0      -5.161   0.219  -0.152  0.00  0.00     0.049 C 
ATOM     24  C           0      -4.004   0.998  -0.309  0.00  0.00    -0.021 C 
ATOM     25  C           0      -4.084   2.343  -0.710  0.00  0.00     0.012 C 
ATOM     26  C           0      -2.952   3.101  -0.743  0.00  0.00     0.002 C 
ATOM     27  C           0      -1.732   2.587  -0.333  0.00  0.00     0.016 C 
ATOM     28  C           0      -1.612   1.263   0.102  0.00  0.00     0.027 C 
ATOM     29  C           0      -2.728   0.415  -0.091  0.00  0.00     0.003 C 
ATOM     30  C           0       2.131   0.618   0.157  0.00  0.00     0.003 C 
ENDROOT
BRANCH   9  31
ATOM     31  O           0       5.685  -1.542  -0.228  0.00  0.00    -0.351 OA
BRANCH  31  32
ATOM     32  C           0       6.757  -0.597  -0.197  0.00  0.00     0.171 C 
ATOM     33  C           0       8.092  -1.338  -0.289  0.00  0.00     0.034 C 
ENDBRANCH  31  32
ENDBRANCH   9  31
BRANCH  22  34
ATOM     34  O           0      -6.169  -1.897   0.188  0.00  0.00    -0.356 OA
ATOM     35  C           0      -7.279  -0.999   0.158  0.00  0.00     0.210 C 
ENDBRANCH  22  34
TORSDOF 3
