REMARK  2 active torsions:
REMARK  status: ('A' for Active; 'I' for Inactive)
REMARK    1  A    between atoms: C_5  and  O_6 
REMARK    2  A    between atoms: C_28  and  O_29 
ROOT
ATOM      1  O           0      -0.100  -1.153   1.444  0.00  0.00    -0.287 OA
ATOM      2  C           0      -0.009  -0.160   0.760  0.00  0.00     0.194 C 
ATOM      3  C           0       1.340   0.319   0.462  0.00  0.00     0.029 C 
ATOM      4  C           0       1.592   1.683   0.634  0.00  0.00     0.053 C 
ATOM      5  C           0       2.832   2.243   0.355  0.00  0.00     0.070 C 
ATOM      6  C           0       3.882   1.445  -0.033  0.00  0.00     0.049 C 
ATOM      7  C           0       3.694   0.056  -0.140  0.00  0.00    -0.021 C 
ATOM      8  C           0       4.807  -0.769  -0.385  0.00  0.00     0.012 C 
ATOM      9  C           0       4.644  -2.108  -0.566  0.00  0.00     0.002 C 
ATOM     10  C           0       3.376  -2.667  -0.534  0.00  0.00     0.016 C 
ATOM     11  C           0       2.253  -1.886  -0.294  0.00  0.00     0.021 C 
ATOM     12  C           0       0.929  -2.501  -0.330  0.00  0.00     0.132 C 
ATOM     13  N           0       0.466  -3.706  -0.088  0.00  0.00    -0.283 N 
ATOM     14  HN          0       1.034  -4.549  -0.005  1.00  0.00     0.188 HD
ATOM     15  N           0      -0.826  -3.659   0.030  0.00  0.00    -0.283 N 
ATOM     16  HN          0      -1.422  -4.443   0.296  1.00  0.00     0.188 HD
ATOM     17  C           0      -1.245  -2.456  -0.244  0.00  0.00     0.132 C 
ATOM     18  N           0      -0.170  -1.796  -0.829  0.00  0.00    -0.325 N 
ATOM     19  HN          0      -0.171  -1.027  -1.418  0.00  0.00     0.169 HD
ATOM     20  C           0      -2.497  -1.735   0.012  0.00  0.00     0.021 C 
ATOM     21  C           0      -3.696  -2.410   0.181  0.00  0.00     0.016 C 
ATOM     22  C           0      -4.887  -1.711   0.332  0.00  0.00     0.002 C 
ATOM     23  C           0      -4.903  -0.349   0.264  0.00  0.00     0.012 C 
ATOM     24  C           0      -3.706   0.359   0.068  0.00  0.00    -0.021 C 
ATOM     25  C           0      -3.715   1.733  -0.226  0.00  0.00     0.049 C 
ATOM     26  C           0      -2.521   2.413  -0.315  0.00  0.00     0.070 C 
ATOM     27  C           0      -1.314   1.776  -0.042  0.00  0.00     0.053 C 
ATOM     28  C           0      -1.271   0.421   0.295  0.00  0.00     0.029 C 
ATOM     29  C           0      -2.464  -0.326   0.139  0.00  0.00     0.003 C 
ATOM     30  C           0       2.400  -0.509   0.009  0.00  0.00     0.003 C 
ENDROOT
BRANCH   5  31
ATOM     31  O           0       3.015   3.582   0.490  0.00  0.00    -0.356 OA
ATOM     32  C           0       4.373   3.851   0.136  0.00  0.00     0.210 C 
ENDBRANCH   5  31
BRANCH  26  33
ATOM     33  O           0      -2.522   3.730  -0.649  0.00  0.00    -0.356 OA
ATOM     34  C           0      -3.887   4.107  -0.839  0.00  0.00     0.210 C 
ENDBRANCH  26  33
TORSDOF 2
