MODEL 1
REMARK VINA RESULT:      -8.1      0.000      0.000
REMARK  2 active torsions:
REMARK  status: ('A' for Active; 'I' for Inactive)
REMARK    1  A    between atoms: C_9  and  O_10 
REMARK    2  A    between atoms: C_24  and  O_32 
ROOT
ATOM      1  O           0      93.361 189.757 136.366  0.00  0.00    -0.287 OA
ATOM      2  C           0      92.461 188.955 136.475  0.00  0.00     0.194 C 
ATOM      3  C           0      91.849 188.474 135.238  0.00  0.00     0.027 C 
ATOM      4  C           0      90.453 188.457 135.167  0.00  0.00     0.016 C 
ATOM      5  C           0      89.780 188.004 134.046  0.00  0.00     0.002 C 
ATOM      6  C           0      90.465 187.614 132.937  0.00  0.00     0.012 C 
ATOM      7  C           0      91.870 187.678 132.930  0.00  0.00    -0.021 C 
ATOM      8  C           0      92.559 187.412 131.734  0.00  0.00     0.049 C 
ATOM      9  C           0      93.935 187.409 131.714  0.00  0.00     0.070 C 
ATOM     10  C           0      94.647 187.636 132.886  0.00  0.00     0.053 C 
ATOM     11  C           0      93.993 187.893 134.083  0.00  0.00     0.024 C 
ATOM     12  C           0      94.776 188.062 135.304  0.00  0.00     0.133 C 
ATOM     13  N           0      95.989 188.494 135.565  0.00  0.00    -0.283 N 
ATOM     14  HN          0      96.729 188.622 134.875  1.00  0.00     0.188 HD
ATOM     15  N           0      96.099 188.732 136.837  0.00  0.00    -0.283 N 
ATOM     16  HN          0      96.912 189.150 137.288  1.00  0.00     0.188 HD
ATOM     17  C           0      95.011 188.354 137.448  0.00  0.00     0.133 C 
ATOM     18  N           0      94.299 187.590 136.531  0.00  0.00    -0.325 N 
ATOM     19  HN          0      93.625 186.913 136.691  0.00  0.00     0.169 HD
ATOM     20  C           0      94.436 188.643 138.766  0.00  0.00     0.024 C 
ATOM     21  C           0      95.238 189.001 139.837  0.00  0.00     0.053 C 
ATOM     22  C           0      94.690 189.177 141.107  0.00  0.00     0.070 C 
ATOM     23  C           0      93.348 188.949 141.320  0.00  0.00     0.049 C 
ATOM     24  C           0      92.524 188.563 140.251  0.00  0.00    -0.021 C 
ATOM     25  C           0      91.212 188.111 140.471  0.00  0.00     0.012 C 
ATOM     26  C           0      90.403 187.848 139.406  0.00  0.00     0.002 C 
ATOM     27  C           0      90.833 188.072 138.107  0.00  0.00     0.016 C 
ATOM     28  C           0      92.119 188.553 137.841  0.00  0.00     0.027 C 
ATOM     29  C           0      93.029 188.598 138.924  0.00  0.00     0.003 C 
ATOM     30  C           0      92.582 188.018 134.110  0.00  0.00     0.003 C 
ENDROOT
BRANCH   9  31
ATOM     31  O           0      94.597 187.175 130.551  0.00  0.00    -0.356 OA
ATOM     32  C           0      95.080 185.831 130.615  0.00  0.00     0.210 C 
ENDBRANCH   9  31
BRANCH  22  33
ATOM     33  O           0      95.482 189.575 142.135  0.00  0.00    -0.356 OA
ATOM     34  C           0      96.740 189.946 141.566  0.00  0.00     0.210 C 
ENDBRANCH  22  33
TORSDOF 2
ENDMDL
MODEL 2
REMARK VINA RESULT:      -8.1      0.756      6.892
REMARK  2 active torsions:
REMARK  status: ('A' for Active; 'I' for Inactive)
REMARK    1  A    between atoms: C_9  and  O_10 
REMARK    2  A    between atoms: C_24  and  O_32 
ROOT
ATOM      1  O           0      93.624 186.844 136.609  0.00  0.00    -0.287 OA
ATOM      2  C           0      92.575 187.448 136.624  0.00  0.00     0.194 C 
ATOM      3  C           0      92.084 187.891 137.927  0.00  0.00     0.027 C 
ATOM      4  C           0      90.743 187.643 138.235  0.00  0.00     0.016 C 
ATOM      5  C           0      90.179 188.038 139.435  0.00  0.00     0.002 C 
ATOM      6  C           0      90.940 188.632 140.395  0.00  0.00     0.012 C 
ATOM      7  C           0      92.311 188.840 140.165  0.00  0.00    -0.021 C 
ATOM      8  C           0      93.114 189.319 141.215  0.00  0.00     0.049 C 
ATOM      9  C           0      94.447 189.587 141.000  0.00  0.00     0.070 C 
ATOM     10  C           0      94.993 189.418 139.733  0.00  0.00     0.053 C 
ATOM     11  C           0      94.223 188.954 138.676  0.00  0.00     0.024 C 
ATOM     12  C           0      94.819 188.851 137.347  0.00  0.00     0.133 C 
ATOM     13  N           0      96.036 188.643 136.900  0.00  0.00    -0.283 N 
ATOM     14  HN          0      96.887 188.709 137.458  1.00  0.00     0.188 HD
ATOM     15  N           0      95.988 188.340 135.639  0.00  0.00    -0.283 N 
ATOM     16  HN          0      96.786 188.054 135.072  1.00  0.00     0.188 HD
ATOM     17  C           0      94.763 188.456 135.208  0.00  0.00     0.133 C 
ATOM     18  N           0      94.067 189.133 136.202  0.00  0.00    -0.325 N 
ATOM     19  HN          0      93.253 189.654 136.133  0.00  0.00     0.169 HD
ATOM     20  C           0      94.055 187.968 134.019  0.00  0.00     0.024 C 
ATOM     21  C           0      94.732 187.694 132.842  0.00  0.00     0.053 C 
ATOM     22  C           0      94.035 187.325 131.692  0.00  0.00     0.070 C 
ATOM     23  C           0      92.658 187.275 131.703  0.00  0.00     0.049 C 
ATOM     24  C           0      91.955 187.571 132.881  0.00  0.00    -0.021 C 
ATOM     25  C           0      90.560 187.745 132.869  0.00  0.00     0.012 C 
ATOM     26  C           0      89.896 187.925 134.046  0.00  0.00     0.002 C 
ATOM     27  C           0      90.563 187.881 135.260  0.00  0.00     0.016 C 
ATOM     28  C           0      91.945 187.677 135.321  0.00  0.00     0.027 C 
ATOM     29  C           0      92.661 187.730 134.102  0.00  0.00     0.003 C 
ATOM     30  C           0      92.879 188.559 138.895  0.00  0.00     0.003 C 
ENDROOT
BRANCH   9  31
ATOM     31  O           0      95.224 190.028 142.023  0.00  0.00    -0.356 OA
ATOM     32  C           0      96.582 189.831 141.623  0.00  0.00     0.210 C 
ENDBRANCH   9  31
BRANCH  22  33
ATOM     33  O           0      94.717 187.014 130.560  0.00  0.00    -0.356 OA
ATOM     34  C           0      94.981 185.610 130.611  0.00  0.00     0.210 C 
ENDBRANCH  22  33
TORSDOF 2
ENDMDL
MODEL 3
REMARK VINA RESULT:      -8.0     22.202     23.947
REMARK  2 active torsions:
REMARK  status: ('A' for Active; 'I' for Inactive)
REMARK    1  A    between atoms: C_9  and  O_10 
REMARK    2  A    between atoms: C_24  and  O_32 
ROOT
ATOM      1  O           0     113.189 174.854 139.956  0.00  0.00    -0.287 OA
ATOM      2  C           0     112.168 174.208 140.023  0.00  0.00     0.194 C 
ATOM      3  C           0     111.701 173.841 141.358  0.00  0.00     0.027 C 
ATOM      4  C           0     111.321 172.514 141.572  0.00  0.00     0.016 C 
ATOM      5  C           0     110.849 172.072 142.796  0.00  0.00     0.002 C 
ATOM      6  C           0     110.801 172.914 143.864  0.00  0.00     0.012 C 
ATOM      7  C           0     111.240 174.242 143.722  0.00  0.00    -0.021 C 
ATOM      8  C           0     111.323 175.060 144.863  0.00  0.00     0.049 C 
ATOM      9  C           0     111.692 176.380 144.744  0.00  0.00     0.070 C 
ATOM     10  C           0     111.951 176.917 143.488  0.00  0.00     0.053 C 
ATOM     11  C           0     111.869 176.136 142.343  0.00  0.00     0.024 C 
ATOM     12  C           0     112.085 176.755 141.039  0.00  0.00     0.133 C 
ATOM     13  N           0     112.790 177.778 140.613  0.00  0.00    -0.283 N 
ATOM     14  HN          0     113.199 178.499 141.207  1.00  0.00     0.188 HD
ATOM     15  N           0     112.885 177.730 139.319  0.00  0.00    -0.283 N 
ATOM     16  HN          0     113.446 178.361 138.746  1.00  0.00     0.188 HD
ATOM     17  C           0     112.155 176.751 138.863  0.00  0.00     0.133 C 
ATOM     18  N           0     111.351 176.345 139.922  0.00  0.00    -0.325 N 
ATOM     19  HN          0     110.503 175.876 139.902  0.00  0.00     0.169 HD
ATOM     20  C           0     112.109 176.028 137.587  0.00  0.00     0.024 C 
ATOM     21  C           0     112.530 176.622 136.410  0.00  0.00     0.053 C 
ATOM     22  C           0     112.390 175.960 135.191  0.00  0.00     0.070 C 
ATOM     23  C           0     111.785 174.723 135.140  0.00  0.00     0.049 C 
ATOM     24  C           0     111.331 174.115 136.321  0.00  0.00    -0.021 C 
ATOM     25  C           0     110.519 172.969 136.282  0.00  0.00     0.012 C 
ATOM     26  C           0     110.186 172.342 137.445  0.00  0.00     0.002 C 
ATOM     27  C           0     110.681 172.781 138.664  0.00  0.00     0.016 C 
ATOM     28  C           0     111.518 173.897 138.747  0.00  0.00     0.027 C 
ATOM     29  C           0     111.669 174.682 137.578  0.00  0.00     0.003 C 
ATOM     30  C           0     111.606 174.748 142.447  0.00  0.00     0.003 C 
ENDROOT
BRANCH   9  31
ATOM     31  O           0     111.794 177.159 145.851  0.00  0.00    -0.356 OA
ATOM     32  C           0     112.166 178.465 145.404  0.00  0.00     0.210 C 
ENDBRANCH   9  31
BRANCH  22  33
ATOM     33  O           0     112.851 176.537 134.052  0.00  0.00    -0.356 OA
ATOM     34  C           0     111.963 176.146 133.002  0.00  0.00     0.210 C 
ENDBRANCH  22  33
TORSDOF 2
ENDMDL
MODEL 4
REMARK VINA RESULT:      -7.7     28.239     29.687
REMARK  2 active torsions:
REMARK  status: ('A' for Active; 'I' for Inactive)
REMARK    1  A    between atoms: C_9  and  O_10 
REMARK    2  A    between atoms: C_24  and  O_32 
ROOT
ATOM      1  O           0     112.039 165.332 140.320  0.00  0.00    -0.287 OA
ATOM      2  C           0     110.899 165.612 140.027  0.00  0.00     0.194 C 
ATOM      3  C           0     110.458 165.268 138.677  0.00  0.00     0.027 C 
ATOM      4  C           0     109.780 166.248 137.946  0.00  0.00     0.016 C 
ATOM      5  C           0     109.308 166.015 136.667  0.00  0.00     0.002 C 
ATOM      6  C           0     109.547 164.828 136.046  0.00  0.00     0.012 C 
ATOM      7  C           0     110.287 163.833 136.710  0.00  0.00    -0.021 C 
ATOM      8  C           0     110.652 162.671 136.008  0.00  0.00     0.049 C 
ATOM      9  C           0     111.324 161.656 136.651  0.00  0.00     0.070 C 
ATOM     10  C           0     111.611 161.764 138.006  0.00  0.00     0.053 C 
ATOM     11  C           0     111.256 162.896 138.727  0.00  0.00     0.024 C 
ATOM     12  C           0     111.519 162.943 140.162  0.00  0.00     0.133 C 
ATOM     13  N           0     112.418 162.399 140.949  0.00  0.00    -0.283 N 
ATOM     14  HN          0     113.035 161.628 140.693  1.00  0.00     0.188 HD
ATOM     15  N           0     112.402 162.995 142.102  0.00  0.00    -0.283 N 
ATOM     16  HN          0     113.056 162.818 142.865  1.00  0.00     0.188 HD
ATOM     17  C           0     111.422 163.854 142.136  0.00  0.00     0.133 C 
ATOM     18  N           0     110.625 163.573 141.033  0.00  0.00    -0.325 N 
ATOM     19  HN          0     109.689 163.777 140.887  0.00  0.00     0.169 HD
ATOM     20  C           0     111.105 164.998 142.999  0.00  0.00     0.024 C 
ATOM     21  C           0     111.570 165.066 144.301  0.00  0.00     0.053 C 
ATOM     22  C           0     111.181 166.109 145.140  0.00  0.00     0.070 C 
ATOM     23  C           0     110.290 167.060 144.695  0.00  0.00     0.049 C 
ATOM     24  C           0     109.790 166.995 143.385  0.00  0.00    -0.021 C 
ATOM     25  C           0     108.722 167.809 142.973  0.00  0.00     0.012 C 
ATOM     26  C           0     108.333 167.799 141.667  0.00  0.00     0.002 C 
ATOM     27  C           0     109.010 167.041 140.724  0.00  0.00     0.016 C 
ATOM     28  C           0     110.099 166.241 141.082  0.00  0.00     0.027 C 
ATOM     29  C           0     110.349 166.070 142.464  0.00  0.00     0.003 C 
ATOM     30  C           0     110.668 164.004 138.066  0.00  0.00     0.003 C 
ENDROOT
BRANCH   9  31
ATOM     31  O           0     111.696 160.546 135.963  0.00  0.00    -0.356 OA
ATOM     32  C           0     111.978 160.963 134.626  0.00  0.00     0.210 C 
ENDBRANCH   9  31
BRANCH  22  33
ATOM     33  O           0     111.684 166.186 146.399  0.00  0.00    -0.356 OA
ATOM     34  C           0     110.856 165.363 147.225  0.00  0.00     0.210 C 
ENDBRANCH  22  33
TORSDOF 2
ENDMDL
MODEL 5
REMARK VINA RESULT:      -7.7     25.915     28.686
REMARK  2 active torsions:
REMARK  status: ('A' for Active; 'I' for Inactive)
REMARK    1  A    between atoms: C_9  and  O_10 
REMARK    2  A    between atoms: C_24  and  O_32 
ROOT
ATOM      1  O           0     110.694 166.756 136.780  0.00  0.00    -0.287 OA
ATOM      2  C           0     110.582 165.566 136.967  0.00  0.00     0.194 C 
ATOM      3  C           0     110.702 165.097 138.346  0.00  0.00     0.027 C 
ATOM      4  C           0     111.531 163.998 138.589  0.00  0.00     0.016 C 
ATOM      5  C           0     111.697 163.469 139.857  0.00  0.00     0.002 C 
ATOM      6  C           0     111.101 164.050 140.933  0.00  0.00     0.012 C 
ATOM      7  C           0     110.314 165.202 140.754  0.00  0.00    -0.021 C 
ATOM      8  C           0     109.824 165.877 141.886  0.00  0.00     0.049 C 
ATOM      9  C           0     109.002 166.971 141.738  0.00  0.00     0.070 C 
ATOM     10  C           0     108.627 167.390 140.467  0.00  0.00     0.053 C 
ATOM     11  C           0     109.089 166.738 139.331  0.00  0.00     0.024 C 
ATOM     12  C           0     108.620 167.170 138.018  0.00  0.00     0.133 C 
ATOM     13  N           0     108.210 168.314 137.520  0.00  0.00    -0.283 N 
ATOM     14  HN          0     107.947 169.134 138.067  1.00  0.00     0.188 HD
ATOM     15  N           0     108.192 168.240 136.224  0.00  0.00    -0.283 N 
ATOM     16  HN          0     107.989 169.016 135.593  1.00  0.00     0.188 HD
ATOM     17  C           0     108.474 167.023 135.852  0.00  0.00     0.133 C 
ATOM     18  N           0     108.394 166.241 136.998  0.00  0.00    -0.325 N 
ATOM     19  HN          0     108.241 165.288 137.079  0.00  0.00     0.169 HD
ATOM     20  C           0     108.900 166.423 134.582  0.00  0.00     0.024 C 
ATOM     21  C           0     108.587 167.011 133.369  0.00  0.00     0.053 C 
ATOM     22  C           0     108.914 166.381 132.169  0.00  0.00     0.070 C 
ATOM     23  C           0     109.510 165.139 132.179  0.00  0.00     0.049 C 
ATOM     24  C           0     109.814 164.517 133.400  0.00  0.00    -0.021 C 
ATOM     25  C           0     110.214 163.171 133.449  0.00  0.00     0.012 C 
ATOM     26  C           0     110.605 162.629 134.637  0.00  0.00     0.002 C 
ATOM     27  C           0     110.671 163.398 135.789  0.00  0.00     0.016 C 
ATOM     28  C           0     110.315 164.750 135.780  0.00  0.00     0.027 C 
ATOM     29  C           0     109.687 165.246 134.612  0.00  0.00     0.003 C 
ATOM     30  C           0     110.028 165.683 139.450  0.00  0.00     0.003 C 
ENDROOT
BRANCH   9  31
ATOM     31  O           0     108.550 167.633 142.834  0.00  0.00    -0.356 OA
ATOM     32  C           0     109.702 168.044 143.573  0.00  0.00     0.210 C 
ENDBRANCH   9  31
BRANCH  22  33
ATOM     33  O           0     108.642 166.994 130.988  0.00  0.00    -0.356 OA
ATOM     34  C           0     107.244 166.820 130.745  0.00  0.00     0.210 C 
ENDBRANCH  22  33
TORSDOF 2
ENDMDL
MODEL 6
REMARK VINA RESULT:      -7.5     27.800     29.947
REMARK  2 active torsions:
REMARK  status: ('A' for Active; 'I' for Inactive)
REMARK    1  A    between atoms: C_9  and  O_10 
REMARK    2  A    between atoms: C_24  and  O_32 
ROOT
ATOM      1  O           0     111.765 165.948 140.438  0.00  0.00    -0.287 OA
ATOM      2  C           0     111.401 164.822 140.182  0.00  0.00     0.194 C 
ATOM      3  C           0     111.767 163.776 141.136  0.00  0.00     0.027 C 
ATOM      4  C           0     112.314 162.595 140.626  0.00  0.00     0.016 C 
ATOM      5  C           0     112.676 161.540 141.444  0.00  0.00     0.002 C 
ATOM      6  C           0     112.570 161.645 142.797  0.00  0.00     0.012 C 
ATOM      7  C           0     112.093 162.839 143.366  0.00  0.00    -0.021 C 
ATOM      8  C           0     112.125 162.989 144.764  0.00  0.00     0.049 C 
ATOM      9  C           0     111.610 164.122 145.350  0.00  0.00     0.070 C 
ATOM     10  C           0     111.024 165.107 144.562  0.00  0.00     0.053 C 
ATOM     11  C           0     110.972 164.982 143.180  0.00  0.00     0.024 C 
ATOM     12  C           0     110.291 166.007 142.394  0.00  0.00     0.133 C 
ATOM     13  N           0     110.074 167.292 142.553  0.00  0.00    -0.283 N 
ATOM     14  HN          0     110.194 167.806 143.426  1.00  0.00     0.188 HD
ATOM     15  N           0     109.684 167.808 141.427  0.00  0.00    -0.283 N 
ATOM     16  HN          0     109.526 168.801 141.259  1.00  0.00     0.188 HD
ATOM     17  C           0     109.525 166.861 140.545  0.00  0.00     0.133 C 
ATOM     18  N           0     109.560 165.666 141.252  0.00  0.00    -0.325 N 
ATOM     19  HN          0     109.192 164.802 141.013  0.00  0.00     0.169 HD
ATOM     20  C           0     109.416 166.846 139.082  0.00  0.00     0.024 C 
ATOM     21  C           0     108.949 167.947 138.385  0.00  0.00     0.053 C 
ATOM     22  C           0     108.758 167.886 137.005  0.00  0.00     0.070 C 
ATOM     23  C           0     108.989 166.710 136.326  0.00  0.00     0.049 C 
ATOM     24  C           0     109.442 165.576 137.020  0.00  0.00    -0.021 C 
ATOM     25  C           0     109.474 164.313 136.405  0.00  0.00     0.012 C 
ATOM     26  C           0     110.020 163.256 137.070  0.00  0.00     0.002 C 
ATOM     27  C           0     110.596 163.415 138.320  0.00  0.00     0.016 C 
ATOM     28  C           0     110.617 164.660 138.956  0.00  0.00     0.027 C 
ATOM     29  C           0     109.846 165.696 138.375  0.00  0.00     0.003 C 
ATOM     30  C           0     111.597 163.882 142.541  0.00  0.00     0.003 C 
ENDROOT
BRANCH   9  31
ATOM     31  O           0     111.663 164.274 146.698  0.00  0.00    -0.356 OA
ATOM     32  C           0     110.317 164.436 147.150  0.00  0.00     0.210 C 
ENDBRANCH   9  31
BRANCH  22  33
ATOM     33  O           0     108.344 168.989 136.331  0.00  0.00    -0.356 OA
ATOM     34  C           0     109.505 169.792 136.102  0.00  0.00     0.210 C 
ENDBRANCH  22  33
TORSDOF 2
ENDMDL
MODEL 7
REMARK VINA RESULT:      -7.5     22.589     24.553
REMARK  2 active torsions:
REMARK  status: ('A' for Active; 'I' for Inactive)
REMARK    1  A    between atoms: C_9  and  O_10 
REMARK    2  A    between atoms: C_24  and  O_32 
ROOT
ATOM      1  O           0     111.599 171.207 138.283  0.00  0.00    -0.287 OA
ATOM      2  C           0     110.717 171.084 137.463  0.00  0.00     0.194 C 
ATOM      3  C           0     110.058 169.782 137.389  0.00  0.00     0.027 C 
ATOM      4  C           0     109.883 169.213 136.124  0.00  0.00     0.016 C 
ATOM      5  C           0     109.256 167.993 135.948  0.00  0.00     0.002 C 
ATOM      6  C           0     108.841 167.265 137.020  0.00  0.00     0.012 C 
ATOM      7  C           0     109.058 167.758 138.319  0.00  0.00    -0.021 C 
ATOM      8  C           0     108.759 166.936 139.420  0.00  0.00     0.049 C 
ATOM      9  C           0     108.905 167.415 140.702  0.00  0.00     0.070 C 
ATOM     10  C           0     109.316 168.726 140.910  0.00  0.00     0.053 C 
ATOM     11  C           0     109.611 169.563 139.842  0.00  0.00     0.024 C 
ATOM     12  C           0     109.978 170.952 140.102  0.00  0.00     0.133 C 
ATOM     13  N           0     110.562 171.577 141.099  0.00  0.00    -0.283 N 
ATOM     14  HN          0     110.706 171.191 142.032  1.00  0.00     0.188 HD
ATOM     15  N           0     110.928 172.761 140.713  0.00  0.00    -0.283 N 
ATOM     16  HN          0     111.474 173.419 141.270  1.00  0.00     0.188 HD
ATOM     17  C           0     110.492 172.980 139.504  0.00  0.00     0.133 C 
ATOM     18  N           0     109.573 171.973 139.237  0.00  0.00    -0.325 N 
ATOM     19  HN          0     108.844 171.963 138.598  0.00  0.00     0.169 HD
ATOM     20  C           0     110.838 173.954 138.462  0.00  0.00     0.024 C 
ATOM     21  C           0     111.380 175.187 138.782  0.00  0.00     0.053 C 
ATOM     22  C           0     111.613 176.139 137.791  0.00  0.00     0.070 C 
ATOM     23  C           0     111.261 175.880 136.485  0.00  0.00     0.049 C 
ATOM     24  C           0     110.688 174.644 136.145  0.00  0.00    -0.021 C 
ATOM     25  C           0     110.118 174.431 134.879  0.00  0.00     0.012 C 
ATOM     26  C           0     109.669 173.189 134.544  0.00  0.00     0.002 C 
ATOM     27  C           0     109.818 172.116 135.409  0.00  0.00     0.016 C 
ATOM     28  C           0     110.409 172.273 136.666  0.00  0.00     0.027 C 
ATOM     29  C           0     110.655 173.597 137.103  0.00  0.00     0.003 C 
ATOM     30  C           0     109.582 169.062 138.517  0.00  0.00     0.003 C 
ENDROOT
BRANCH   9  31
ATOM     31  O           0     108.637 166.610 141.762  0.00  0.00    -0.356 OA
ATOM     32  C           0     109.762 165.742 141.916  0.00  0.00     0.210 C 
ENDBRANCH   9  31
BRANCH  22  33
ATOM     33  O           0     112.189 177.325 138.116  0.00  0.00    -0.356 OA
ATOM     34  C           0     112.354 177.328 139.536  0.00  0.00     0.210 C 
ENDBRANCH  22  33
TORSDOF 2
ENDMDL
MODEL 8
REMARK VINA RESULT:      -7.5     26.217     28.646
REMARK  2 active torsions:
REMARK  status: ('A' for Active; 'I' for Inactive)
REMARK    1  A    between atoms: C_9  and  O_10 
REMARK    2  A    between atoms: C_24  and  O_32 
ROOT
ATOM      1  O           0     111.148 166.978 139.010  0.00  0.00    -0.287 OA
ATOM      2  C           0     110.846 165.840 139.291  0.00  0.00     0.194 C 
ATOM      3  C           0     110.928 165.463 140.701  0.00  0.00     0.027 C 
ATOM      4  C           0     111.570 164.262 141.016  0.00  0.00     0.016 C 
ATOM      5  C           0     111.684 163.809 142.318  0.00  0.00     0.002 C 
ATOM      6  C           0     111.225 164.560 143.355  0.00  0.00     0.012 C 
ATOM      7  C           0     110.635 165.811 143.099  0.00  0.00    -0.021 C 
ATOM      8  C           0     110.297 166.641 144.183  0.00  0.00     0.049 C 
ATOM      9  C           0     109.664 167.843 143.963  0.00  0.00     0.070 C 
ATOM     10  C           0     109.326 168.223 142.669  0.00  0.00     0.053 C 
ATOM     11  C           0     109.640 167.420 141.581  0.00  0.00     0.024 C 
ATOM     12  C           0     109.210 167.825 140.246  0.00  0.00     0.133 C 
ATOM     13  N           0     108.980 168.981 139.666  0.00  0.00    -0.283 N 
ATOM     14  HN          0     108.873 169.871 140.151  1.00  0.00     0.188 HD
ATOM     15  N           0     108.911 168.814 138.380  0.00  0.00    -0.283 N 
ATOM     16  HN          0     108.821 169.563 137.694  1.00  0.00     0.188 HD
ATOM     17  C           0     108.976 167.542 138.101  0.00  0.00     0.133 C 
ATOM     18  N           0     108.802 166.873 139.306  0.00  0.00    -0.325 N 
ATOM     19  HN          0     108.496 165.967 139.465  0.00  0.00     0.169 HD
ATOM     20  C           0     109.259 166.786 136.875  0.00  0.00     0.024 C 
ATOM     21  C           0     109.012 167.327 135.625  0.00  0.00     0.053 C 
ATOM     22  C           0     109.194 166.562 134.473  0.00  0.00     0.070 C 
ATOM     23  C           0     109.576 165.243 134.570  0.00  0.00     0.049 C 
ATOM     24  C           0     109.809 164.671 135.831  0.00  0.00    -0.021 C 
ATOM     25  C           0     109.982 163.285 135.980  0.00  0.00     0.012 C 
ATOM     26  C           0     110.313 162.775 137.200  0.00  0.00     0.002 C 
ATOM     27  C           0     110.540 163.606 138.286  0.00  0.00     0.016 C 
ATOM     28  C           0     110.413 164.994 138.177  0.00  0.00     0.027 C 
ATOM     29  C           0     109.841 165.499 136.984  0.00  0.00     0.003 C 
ATOM     30  C           0     110.393 166.234 141.766  0.00  0.00     0.003 C 
ENDROOT
BRANCH   9  31
ATOM     31  O           0     109.361 168.652 145.010  0.00  0.00    -0.356 OA
ATOM     32  C           0     109.342 167.827 146.178  0.00  0.00     0.210 C 
ENDBRANCH   9  31
BRANCH  22  33
ATOM     33  O           0     108.993 167.122 133.253  0.00  0.00    -0.356 OA
ATOM     34  C           0     109.043 168.539 133.436  0.00  0.00     0.210 C 
ENDBRANCH  22  33
TORSDOF 2
ENDMDL
MODEL 9
REMARK VINA RESULT:      -7.4     50.343     53.103
REMARK  2 active torsions:
REMARK  status: ('A' for Active; 'I' for Inactive)
REMARK    1  A    between atoms: C_9  and  O_10 
REMARK    2  A    between atoms: C_24  and  O_32 
ROOT
ATOM      1  O           0     134.719 158.973 152.482  0.00  0.00    -0.287 OA
ATOM      2  C           0     134.121 159.486 151.563  0.00  0.00     0.194 C 
ATOM      3  C           0     134.792 160.582 150.867  0.00  0.00     0.027 C 
ATOM      4  C           0     134.056 161.745 150.623  0.00  0.00     0.016 C 
ATOM      5  C           0     134.596 162.830 149.956  0.00  0.00     0.002 C 
ATOM      6  C           0     135.900 162.825 149.567  0.00  0.00     0.012 C 
ATOM      7  C           0     136.706 161.709 149.851  0.00  0.00    -0.021 C 
ATOM      8  C           0     138.083 161.773 149.576  0.00  0.00     0.049 C 
ATOM      9  C           0     138.883 160.674 149.789  0.00  0.00     0.070 C 
ATOM     10  C           0     138.324 159.486 150.245  0.00  0.00     0.053 C 
ATOM     11  C           0     136.966 159.390 150.518  0.00  0.00     0.024 C 
ATOM     12  C           0     136.408 158.107 150.933  0.00  0.00     0.133 C 
ATOM     13  N           0     136.881 157.064 151.575  0.00  0.00    -0.283 N 
ATOM     14  HN          0     137.869 156.878 151.748  1.00  0.00     0.188 HD
ATOM     15  N           0     135.898 156.307 151.957  0.00  0.00    -0.283 N 
ATOM     16  HN          0     135.987 155.478 152.543  1.00  0.00     0.188 HD
ATOM     17  C           0     134.778 156.771 151.477  0.00  0.00     0.133 C 
ATOM     18  N           0     135.131 157.715 150.520  0.00  0.00    -0.325 N 
ATOM     19  HN          0     134.619 158.042 149.765  0.00  0.00     0.169 HD
ATOM     20  C           0     133.365 156.551 151.805  0.00  0.00     0.024 C 
ATOM     21  C           0     132.940 155.372 152.393  0.00  0.00     0.053 C 
ATOM     22  C           0     131.583 155.136 152.610  0.00  0.00     0.070 C 
ATOM     23  C           0     130.645 156.056 152.196  0.00  0.00     0.049 C 
ATOM     24  C           0     131.056 157.246 151.576  0.00  0.00    -0.021 C 
ATOM     25  C           0     130.130 158.095 150.948  0.00  0.00     0.012 C 
ATOM     26  C           0     130.546 159.295 150.451  0.00  0.00     0.002 C 
ATOM     27  C           0     131.857 159.718 150.606  0.00  0.00     0.016 C 
ATOM     28  C           0     132.806 158.921 151.254  0.00  0.00     0.027 C 
ATOM     29  C           0     132.434 157.588 151.554  0.00  0.00     0.003 C 
ATOM     30  C           0     136.139 160.537 150.419  0.00  0.00     0.003 C 
ENDROOT
BRANCH   9  31
ATOM     31  O           0     140.217 160.747 149.545  0.00  0.00    -0.356 OA
ATOM     32  C           0     140.771 161.618 150.533  0.00  0.00     0.210 C 
ENDBRANCH   9  31
BRANCH  22  33
ATOM     33  O           0     131.187 153.996 153.232  0.00  0.00    -0.356 OA
ATOM     34  C           0     132.042 152.951 152.761  0.00  0.00     0.210 C 
ENDBRANCH  22  33
TORSDOF 2
ENDMDL
