REMARK  1 active torsions:
REMARK  status: ('A' for Active; 'I' for Inactive)
REMARK    1  A    between atoms: N_18  and  N_19 
ROOT
ATOM      1  O           0      -0.106  -0.379  -1.542  0.00  0.00    -0.287 OA
ATOM      2  C           0      -0.004   0.562  -0.792  0.00  0.00     0.194 C 
ATOM      3  C           0       1.345   1.055  -0.521  0.00  0.00     0.027 A 
ATOM      4  C           0       1.575   2.427  -0.664  0.00  0.00     0.016 A 
ATOM      5  C           0       2.809   2.997  -0.409  0.00  0.00     0.002 A 
ATOM      6  C           0       3.867   2.222  -0.047  0.00  0.00     0.012 A 
ATOM      7  C           0       3.707   0.829   0.061  0.00  0.00    -0.024 A 
ATOM      8  C           0       4.833   0.032   0.339  0.00  0.00     0.012 A 
ATOM      9  C           0       4.705  -1.315   0.482  0.00  0.00     0.002 A 
ATOM     10  C           0       3.459  -1.912   0.372  0.00  0.00     0.016 A 
ATOM     11  C           0       2.321  -1.162   0.109  0.00  0.00     0.023 A 
ATOM     12  C           0       1.023  -1.822   0.032  0.00  0.00     0.150 C 
ATOM     13  N           0       0.587  -2.943  -0.492  0.00  0.00    -0.282 N 
ATOM     14  HN          0       1.174  -3.723  -0.789  1.00  0.00     0.188 HD
ATOM     15  N           0      -0.707  -2.905  -0.574  0.00  0.00    -0.282 N 
ATOM     16  HN          0      -1.288  -3.608  -1.030  1.00  0.00     0.188 HD
ATOM     17  C           0      -1.150  -1.831   0.016  0.00  0.00     0.150 C 
ATOM     18  N           0      -0.078  -1.317   0.733  0.00  0.00    -0.244 N 
ATOM     19  C           0      -2.427  -1.112  -0.042  0.00  0.00     0.023 C 
ATOM     20  C           0      -3.630  -1.791  -0.145  0.00  0.00     0.016 C 
ATOM     21  C           0      -4.837  -1.107  -0.126  0.00  0.00     0.002 C 
ATOM     22  C           0      -4.862   0.246   0.039  0.00  0.00     0.012 C 
ATOM     23  C           0      -3.660   0.962   0.169  0.00  0.00    -0.024 C 
ATOM     24  C           0      -3.666   2.318   0.539  0.00  0.00     0.012 C 
ATOM     25  C           0      -2.496   3.015   0.556  0.00  0.00     0.002 C 
ATOM     26  C           0      -1.306   2.424   0.164  0.00  0.00     0.016 C 
ATOM     27  C           0      -1.255   1.085  -0.233  0.00  0.00     0.027 C 
ATOM     28  C           0      -2.421   0.306  -0.051  0.00  0.00     0.002 C 
ATOM     29  C           0       2.431   0.235  -0.118  0.00  0.00     0.002 A 
ENDROOT
BRANCH  18  30
ATOM     30  N           0      -0.085  -0.567   1.875  0.00  0.00    -0.239 NA
ATOM     31  HN1         0      -0.054  -1.214   2.648  0.00  0.00     0.143 HD
ATOM     32  HN2         0       0.785  -0.055   1.891  0.00  0.00     0.143 HD
ENDBRANCH  18  30
TORSDOF 1
