REMARK  2 active torsions:
REMARK  status: ('A' for Active; 'I' for Inactive)
REMARK    1  A    between atoms: C_9  and  C_10 
REMARK    2  A    between atoms: C_10  and  O_11 
ROOT
ATOM      1  O           0      -0.429  -0.117  -1.496  0.00  0.00    -0.287 OA
ATOM      2  C           0      -0.364   0.808  -0.719  0.00  0.00     0.194 C 
ATOM      3  C           0       0.956   1.394  -0.499  0.00  0.00     0.027 C 
ATOM      4  C           0       1.066   2.787  -0.544  0.00  0.00     0.016 C 
ATOM      5  C           0       2.269   3.436  -0.336  0.00  0.00     0.002 C 
ATOM      6  C           0       3.413   2.726  -0.136  0.00  0.00     0.012 C 
ATOM      7  C           0       3.372   1.321  -0.147  0.00  0.00    -0.023 C 
ATOM      8  C           0       4.577   0.598  -0.083  0.00  0.00     0.021 C 
ATOM      9  C           0       4.561  -0.762  -0.030  0.00  0.00    -0.033 C 
ATOM     10  C           0       3.356  -1.446  -0.011  0.00  0.00     0.025 C 
ATOM     11  C           0       2.145  -0.768  -0.069  0.00  0.00     0.022 C 
ATOM     12  C           0       0.896  -1.521   0.014  0.00  0.00     0.133 C 
ATOM     13  N           0       0.530  -2.736  -0.323  0.00  0.00    -0.283 N 
ATOM     14  HN          0       1.165  -3.500  -0.553  1.00  0.00     0.188 HD
ATOM     15  N           0      -0.766  -2.814  -0.318  0.00  0.00    -0.283 N 
ATOM     16  HN          0      -1.308  -3.624  -0.619  1.00  0.00     0.188 HD
ATOM     17  C           0      -1.269  -1.699   0.131  0.00  0.00     0.133 C 
ATOM     18  N           0      -0.209  -0.993   0.688  0.00  0.00    -0.325 N 
ATOM     19  HN          0      -0.224  -0.295   1.360  0.00  0.00     0.169 HD
ATOM     20  C           0      -2.604  -1.091   0.075  0.00  0.00     0.022 C 
ATOM     21  C           0      -3.746  -1.865  -0.052  0.00  0.00     0.023 C 
ATOM     22  C           0      -5.004  -1.279  -0.010  0.00  0.00    -0.060 C 
ATOM     23  C           0      -6.231  -2.133  -0.192  0.00  0.00     0.048 C 
ATOM     24  C           0      -5.139   0.059   0.213  0.00  0.00     0.019 C 
ATOM     25  C           0      -3.999   0.863   0.371  0.00  0.00    -0.024 C 
ATOM     26  C           0      -4.101   2.191   0.819  0.00  0.00     0.012 C 
ATOM     27  C           0      -2.987   2.975   0.856  0.00  0.00     0.002 C 
ATOM     28  C           0      -1.764   2.505   0.404  0.00  0.00     0.016 C 
ATOM     29  C           0      -1.622   1.200  -0.079  0.00  0.00     0.027 C 
ATOM     30  C           0      -2.715   0.321   0.105  0.00  0.00     0.002 C 
ATOM     31  C           0       2.130   0.640  -0.236  0.00  0.00     0.002 C 
ENDROOT
BRANCH   9  32
ATOM     32  C           0       5.858  -1.526   0.017  0.00  0.00     0.202 C 
BRANCH  32  33
ATOM     33  O           0       6.250  -1.715   1.378  0.00  0.00    -0.396 OA
ATOM     34  H           0       7.083  -2.207   1.363  0.00  0.00     0.209 HD
ENDBRANCH  32  33
ENDBRANCH   9  32
TORSDOF 2
