REMARK  1 active torsions:
REMARK  status: ('A' for Active; 'I' for Inactive)
REMARK    1  A    between atoms: N_18  and  O_19 
ROOT
ATOM      1  O           0      -0.095  -0.257  -1.667  0.00  0.00    -0.287 OA
ATOM      2  C           0       0.001   0.646  -0.870  0.00  0.00     0.194 C 
ATOM      3  C           0       1.349   1.125  -0.569  0.00  0.00     0.027 A 
ATOM      4  C           0       1.574   2.504  -0.622  0.00  0.00     0.016 A 
ATOM      5  C           0       2.807   3.060  -0.332  0.00  0.00     0.002 A 
ATOM      6  C           0       3.870   2.267  -0.030  0.00  0.00     0.012 A 
ATOM      7  C           0       3.717   0.869  -0.024  0.00  0.00    -0.024 A 
ATOM      8  C           0       4.850   0.058   0.169  0.00  0.00     0.012 A 
ATOM      9  C           0       4.726  -1.296   0.225  0.00  0.00     0.002 A 
ATOM     10  C           0       3.477  -1.887   0.114  0.00  0.00     0.016 A 
ATOM     11  C           0       2.334  -1.122  -0.070  0.00  0.00     0.024 A 
ATOM     12  C           0       1.031  -1.777  -0.139  0.00  0.00     0.161 C 
ATOM     13  N           0       0.592  -2.910  -0.634  0.00  0.00    -0.281 N 
ATOM     14  HN          0       1.178  -3.697  -0.913  1.00  0.00     0.188 HD
ATOM     15  N           0      -0.702  -2.874  -0.714  0.00  0.00    -0.281 N 
ATOM     16  HN          0      -1.284  -3.591  -1.147  1.00  0.00     0.188 HD
ATOM     17  C           0      -1.145  -1.784  -0.157  0.00  0.00     0.161 C 
ATOM     18  N           0      -0.071  -1.236   0.531  0.00  0.00    -0.185 N 
ATOM     19  C           0      -2.425  -1.067  -0.219  0.00  0.00     0.024 C 
ATOM     20  C           0      -3.623  -1.742  -0.387  0.00  0.00     0.016 C 
ATOM     21  C           0      -4.831  -1.058  -0.363  0.00  0.00     0.002 C 
ATOM     22  C           0      -4.862   0.284  -0.126  0.00  0.00     0.012 C 
ATOM     23  C           0      -3.665   0.991   0.071  0.00  0.00    -0.024 C 
ATOM     24  C           0      -3.676   2.322   0.524  0.00  0.00     0.012 C 
ATOM     25  C           0      -2.506   3.015   0.601  0.00  0.00     0.002 C 
ATOM     26  C           0      -1.310   2.449   0.189  0.00  0.00     0.016 C 
ATOM     27  C           0      -1.253   1.137  -0.292  0.00  0.00     0.027 C 
ATOM     28  C           0      -2.421   0.348  -0.162  0.00  0.00     0.002 C 
ATOM     29  C           0       2.439   0.284  -0.222  0.00  0.00     0.002 A 
ENDROOT
BRANCH  18  30
ATOM     30  O           0      -0.079  -0.380   1.660  0.00  0.00    -0.275 OA
ATOM     31  C           0      -0.056  -1.221   2.816  0.00  0.00     0.238 C 
ENDBRANCH  18  30
TORSDOF 1
