MODEL 1
REMARK VINA RESULT:      -7.8      0.000      0.000
REMARK  2 active torsions:
REMARK  status: ('A' for Active; 'I' for Inactive)
REMARK    1  A    between atoms: C_18  and  C_19 
REMARK    2  A    between atoms: C_19  and  O_22 
ROOT
ATOM      1  O           0     113.329 174.614 139.556  0.00  0.00    -0.287 OA
ATOM      2  C           0     112.306 174.051 139.869  0.00  0.00     0.196 C 
ATOM      3  C           0     111.614 173.302 138.823  0.00  0.00     0.039 A 
ATOM      4  C           0     111.215 171.995 139.126  0.00  0.00     0.003 A 
ATOM      5  C           0     110.543 171.202 138.214  0.00  0.00     0.000 A 
ATOM      6  C           0     110.294 171.655 136.956  0.00  0.00    -0.000 A 
ATOM      7  C           0     110.721 172.942 136.581  0.00  0.00    -0.000 A 
ATOM      8  C           0     110.559 173.350 135.244  0.00  0.00    -0.004 A 
ATOM      9  C           0     110.911 174.606 134.865  0.00  0.00    -0.023 A 
ATOM     10  C           0     110.751 175.030 133.428  0.00  0.00     0.031 C 
ATOM     11  C           0     111.413 175.507 135.795  0.00  0.00     0.006 A 
ATOM     12  C           0     111.592 175.143 137.122  0.00  0.00     0.032 A 
ATOM     13  C           0     112.085 176.119 138.092  0.00  0.00     0.133 C 
ATOM     14  N           0     112.910 177.137 138.046  0.00  0.00    -0.283 N 
ATOM     15  HN          0     113.252 177.575 137.190  1.00  0.00     0.188 HD
ATOM     16  N           0     113.228 177.505 139.248  0.00  0.00    -0.283 N 
ATOM     17  HN          0     113.909 178.227 139.482  1.00  0.00     0.188 HD
ATOM     18  C           0     112.542 176.809 140.110  0.00  0.00     0.133 C 
ATOM     19  N           0     111.548 176.163 139.384  0.00  0.00    -0.325 N 
ATOM     20  HN          0     110.701 175.808 139.692  0.00  0.00     0.169 HD
ATOM     21  C           0     112.685 176.554 141.548  0.00  0.00     0.034 C 
ATOM     22  C           0     113.294 177.470 142.389  0.00  0.00     0.003 C 
ATOM     23  C           0     113.341 177.249 143.760  0.00  0.00     0.000 C 
ATOM     24  C           0     112.747 176.149 144.305  0.00  0.00     0.000 C 
ATOM     25  C           0     112.101 175.216 143.479  0.00  0.00     0.000 C 
ATOM     26  C           0     111.300 174.196 144.020  0.00  0.00     0.000 C 
ATOM     27  C           0     110.773 173.246 143.196  0.00  0.00     0.000 C 
ATOM     28  C           0     111.059 173.235 141.840  0.00  0.00     0.003 C 
ATOM     29  C           0     111.880 174.209 141.262  0.00  0.00     0.039 C 
ATOM     30  C           0     112.232 175.317 142.069  0.00  0.00     0.006 C 
ATOM     31  C           0     111.318 173.811 137.532  0.00  0.00     0.006 A 
ENDROOT
BRANCH  11  32
ATOM     32  C           0     111.769 176.899 135.338  0.00  0.00     0.164 C 
BRANCH  32  33
ATOM     33  O           0     113.128 176.924 134.898  0.00  0.00    -0.378 OA
ATOM     34  H           0     113.138 177.382 134.047  0.00  0.00     0.211 HD
ENDBRANCH  32  33
ENDBRANCH  11  32
TORSDOF 2
ENDMDL
MODEL 2
REMARK VINA RESULT:      -7.7      9.239     12.564
REMARK  2 active torsions:
REMARK  status: ('A' for Active; 'I' for Inactive)
REMARK    1  A    between atoms: C_18  and  C_19 
REMARK    2  A    between atoms: C_19  and  O_22 
ROOT
ATOM      1  O           0     111.801 165.251 137.952  0.00  0.00    -0.287 OA
ATOM      2  C           0     110.688 165.597 138.274  0.00  0.00     0.196 C 
ATOM      3  C           0     110.426 165.739 139.704  0.00  0.00     0.039 A 
ATOM      4  C           0     109.801 166.917 140.128  0.00  0.00     0.003 A 
ATOM      5  C           0     109.495 167.150 141.456  0.00  0.00     0.000 A 
ATOM      6  C           0     109.847 166.250 142.413  0.00  0.00    -0.000 A 
ATOM      7  C           0     110.525 165.073 142.049  0.00  0.00    -0.000 A 
ATOM      8  C           0     110.984 164.211 143.062  0.00  0.00    -0.004 A 
ATOM      9  C           0     111.593 163.040 142.739  0.00  0.00    -0.023 A 
ATOM     10  C           0     112.097 162.129 143.828  0.00  0.00     0.031 C 
ATOM     11  C           0     111.749 162.671 141.410  0.00  0.00     0.006 A 
ATOM     12  C           0     111.314 163.495 140.381  0.00  0.00     0.032 A 
ATOM     13  C           0     111.454 163.069 138.990  0.00  0.00     0.133 C 
ATOM     14  N           0     112.324 162.350 138.322  0.00  0.00    -0.283 N 
ATOM     15  HN          0     113.038 161.756 138.743  1.00  0.00     0.188 HD
ATOM     16  N           0     112.144 162.508 137.048  0.00  0.00    -0.283 N 
ATOM     17  HN          0     112.735 162.113 136.317  1.00  0.00     0.188 HD
ATOM     18  C           0     111.090 163.247 136.846  0.00  0.00     0.133 C 
ATOM     19  N           0     110.431 163.324 138.068  0.00  0.00    -0.325 N 
ATOM     20  HN          0     109.501 163.527 138.248  0.00  0.00     0.169 HD
ATOM     21  C           0     110.588 164.001 135.691  0.00  0.00     0.034 C 
ATOM     22  C           0     110.879 163.616 134.393  0.00  0.00     0.003 C 
ATOM     23  C           0     110.322 164.290 133.314  0.00  0.00     0.000 C 
ATOM     24  C           0     109.442 165.313 133.515  0.00  0.00     0.000 C 
ATOM     25  C           0     109.109 165.708 134.821  0.00  0.00     0.000 C 
ATOM     26  C           0     108.052 166.602 135.064  0.00  0.00     0.000 C 
ATOM     27  C           0     107.824 167.043 136.333  0.00  0.00     0.000 C 
ATOM     28  C           0     108.650 166.671 137.382  0.00  0.00     0.003 C 
ATOM     29  C           0     109.735 165.812 137.182  0.00  0.00     0.039 C 
ATOM     30  C           0     109.830 165.175 135.921  0.00  0.00     0.006 C 
ATOM     31  C           0     110.755 164.765 140.683  0.00  0.00     0.006 A 
ENDROOT
BRANCH  11  32
ATOM     32  C           0     112.408 161.352 141.094  0.00  0.00     0.164 C 
BRANCH  32  33
ATOM     33  O           0     113.808 161.556 140.888  0.00  0.00    -0.378 OA
ATOM     34  H           0     114.216 160.680 140.854  0.00  0.00     0.211 HD
ENDBRANCH  32  33
ENDBRANCH  11  32
TORSDOF 2
ENDMDL
MODEL 3
REMARK VINA RESULT:      -7.7      8.394     12.203
REMARK  2 active torsions:
REMARK  status: ('A' for Active; 'I' for Inactive)
REMARK    1  A    between atoms: C_18  and  C_19 
REMARK    2  A    between atoms: C_19  and  O_22 
ROOT
ATOM      1  O           0     112.209 165.187 140.319  0.00  0.00    -0.287 OA
ATOM      2  C           0     111.127 165.520 139.895  0.00  0.00     0.196 C 
ATOM      3  C           0     110.462 166.631 140.570  0.00  0.00     0.039 A 
ATOM      4  C           0     109.946 167.655 139.767  0.00  0.00     0.003 A 
ATOM      5  C           0     109.289 168.748 140.301  0.00  0.00     0.000 A 
ATOM      6  C           0     109.169 168.890 141.648  0.00  0.00    -0.000 A 
ATOM      7  C           0     109.716 167.918 142.505  0.00  0.00    -0.000 A 
ATOM      8  C           0     109.685 168.140 143.894  0.00  0.00    -0.004 A 
ATOM      9  C           0     110.157 167.194 144.748  0.00  0.00    -0.023 A 
ATOM     10  C           0     110.136 167.445 146.233  0.00  0.00     0.031 C 
ATOM     11  C           0     110.651 165.991 144.262  0.00  0.00     0.006 A 
ATOM     12  C           0     110.703 165.735 142.899  0.00  0.00     0.032 A 
ATOM     13  C           0     111.192 164.447 142.411  0.00  0.00     0.133 C 
ATOM     14  N           0     112.091 163.582 142.816  0.00  0.00    -0.283 N 
ATOM     15  HN          0     112.528 163.580 143.738  1.00  0.00     0.188 HD
ATOM     16  N           0     112.343 162.731 141.871  0.00  0.00    -0.283 N 
ATOM     17  HN          0     113.056 162.002 141.911  1.00  0.00     0.188 HD
ATOM     18  C           0     111.546 162.950 140.865  0.00  0.00     0.133 C 
ATOM     19  N           0     110.564 163.817 141.330  0.00  0.00    -0.325 N 
ATOM     20  HN          0     109.672 163.972 140.984  0.00  0.00     0.169 HD
ATOM     21  C           0     111.561 162.546 139.454  0.00  0.00     0.034 C 
ATOM     22  C           0     112.171 161.372 139.043  0.00  0.00     0.003 C 
ATOM     23  C           0     112.098 160.964 137.717  0.00  0.00     0.000 C 
ATOM     24  C           0     111.385 161.688 136.807  0.00  0.00     0.000 C 
ATOM     25  C           0     110.737 162.870 137.201  0.00  0.00     0.000 C 
ATOM     26  C           0     109.825 163.518 136.350  0.00  0.00     0.000 C 
ATOM     27  C           0     109.293 164.716 136.723  0.00  0.00     0.000 C 
ATOM     28  C           0     109.678 165.337 137.902  0.00  0.00     0.003 C 
ATOM     29  C           0     110.610 164.747 138.762  0.00  0.00     0.039 C 
ATOM     30  C           0     110.981 163.408 138.492  0.00  0.00     0.006 C 
ATOM     31  C           0     110.302 166.738 141.976  0.00  0.00     0.006 A 
ENDROOT
BRANCH  11  32
ATOM     32  C           0     111.142 164.958 145.244  0.00  0.00     0.164 C 
BRANCH  32  33
ATOM     33  O           0     112.549 165.116 145.440  0.00  0.00    -0.378 OA
ATOM     34  H           0     112.922 164.227 145.517  0.00  0.00     0.211 HD
ENDBRANCH  32  33
ENDBRANCH  11  32
TORSDOF 2
ENDMDL
MODEL 4
REMARK VINA RESULT:      -7.6      8.904     12.489
REMARK  2 active torsions:
REMARK  status: ('A' for Active; 'I' for Inactive)
REMARK    1  A    between atoms: C_18  and  C_19 
REMARK    2  A    between atoms: C_19  and  O_22 
ROOT
ATOM      1  O           0     112.098 165.270 140.033  0.00  0.00    -0.287 OA
ATOM      2  C           0     111.006 165.761 140.206  0.00  0.00     0.196 C 
ATOM      3  C           0     110.705 166.251 141.549  0.00  0.00     0.039 A 
ATOM      4  C           0     110.165 167.538 141.657  0.00  0.00     0.003 A 
ATOM      5  C           0     109.832 168.096 142.877  0.00  0.00     0.000 A 
ATOM      6  C           0     110.074 167.421 144.033  0.00  0.00    -0.000 A 
ATOM      7  C           0     110.664 166.145 143.986  0.00  0.00    -0.000 A 
ATOM      8  C           0     111.013 165.512 145.193  0.00  0.00    -0.004 A 
ATOM      9  C           0     111.534 164.257 145.181  0.00  0.00    -0.023 A 
ATOM     10  C           0     111.921 163.592 146.476  0.00  0.00     0.031 C 
ATOM     11  C           0     111.707 163.578 143.983  0.00  0.00     0.006 A 
ATOM     12  C           0     111.379 164.168 142.770  0.00  0.00     0.032 A 
ATOM     13  C           0     111.533 163.421 141.524  0.00  0.00     0.133 C 
ATOM     14  N           0     112.364 162.506 141.087  0.00  0.00    -0.283 N 
ATOM     15  HN          0     113.010 161.976 141.671  1.00  0.00     0.188 HD
ATOM     16  N           0     112.243 162.374 139.803  0.00  0.00    -0.283 N 
ATOM     17  HN          0     112.826 161.778 139.215  1.00  0.00     0.188 HD
ATOM     18  C           0     111.263 163.120 139.380  0.00  0.00     0.133 C 
ATOM     19  N           0     110.569 163.528 140.514  0.00  0.00    -0.325 N 
ATOM     20  HN          0     109.653 163.834 140.592  0.00  0.00     0.169 HD
ATOM     21  C           0     110.867 163.618 138.057  0.00  0.00     0.034 C 
ATOM     22  C           0     111.172 162.922 136.900  0.00  0.00     0.003 C 
ATOM     23  C           0     110.712 163.364 135.666  0.00  0.00     0.000 C 
ATOM     24  C           0     109.913 164.467 135.579  0.00  0.00     0.000 C 
ATOM     25  C           0     109.567 165.178 136.740  0.00  0.00     0.000 C 
ATOM     26  C           0     108.580 166.178 136.712  0.00  0.00     0.000 C 
ATOM     27  C           0     108.344 166.919 137.832  0.00  0.00     0.000 C 
ATOM     28  C           0     109.098 166.743 138.982  0.00  0.00     0.003 C 
ATOM     29  C           0     110.114 165.784 139.044  0.00  0.00     0.039 C 
ATOM     30  C           0     110.202 164.866 137.970  0.00  0.00     0.006 C 
ATOM     31  C           0     110.917 165.512 142.741  0.00  0.00     0.006 A 
ENDROOT
BRANCH  11  32
ATOM     32  C           0     112.265 162.178 144.015  0.00  0.00     0.164 C 
BRANCH  32  33
ATOM     33  O           0     113.685 162.227 143.865  0.00  0.00    -0.378 OA
ATOM     34  H           0     113.872 162.886 143.182  0.00  0.00     0.211 HD
ENDBRANCH  32  33
ENDBRANCH  11  32
TORSDOF 2
ENDMDL
MODEL 5
REMARK VINA RESULT:      -7.5      8.558     10.554
REMARK  2 active torsions:
REMARK  status: ('A' for Active; 'I' for Inactive)
REMARK    1  A    between atoms: C_18  and  C_19 
REMARK    2  A    between atoms: C_19  and  O_22 
ROOT
ATOM      1  O           0     112.274 165.132 140.309  0.00  0.00    -0.287 OA
ATOM      2  C           0     111.808 164.018 140.249  0.00  0.00     0.196 C 
ATOM      3  C           0     111.351 163.560 138.939  0.00  0.00     0.039 A 
ATOM      4  C           0     111.773 162.293 138.519  0.00  0.00     0.003 A 
ATOM      5  C           0     111.392 161.757 137.303  0.00  0.00     0.000 A 
ATOM      6  C           0     110.627 162.477 136.440  0.00  0.00    -0.000 A 
ATOM      7  C           0     110.218 163.778 136.789  0.00  0.00    -0.000 A 
ATOM      8  C           0     109.527 164.551 135.839  0.00  0.00    -0.004 A 
ATOM      9  C           0     109.072 165.789 136.165  0.00  0.00    -0.023 A 
ATOM     10  C           0     108.347 166.619 135.137  0.00  0.00     0.031 C 
ATOM     11  C           0     109.264 166.294 137.444  0.00  0.00     0.006 A 
ATOM     12  C           0     109.944 165.565 138.409  0.00  0.00     0.032 A 
ATOM     13  C           0     110.101 166.101 139.760  0.00  0.00     0.133 C 
ATOM     14  N           0     110.242 167.299 140.272  0.00  0.00    -0.283 N 
ATOM     15  HN          0     110.074 168.173 139.773  1.00  0.00     0.188 HD
ATOM     16  N           0     110.629 167.211 141.506  0.00  0.00    -0.283 N 
ATOM     17  HN          0     110.877 168.000 142.104  1.00  0.00     0.188 HD
ATOM     18  C           0     110.650 165.959 141.866  0.00  0.00     0.133 C 
ATOM     19  N           0     109.978 165.258 140.871  0.00  0.00    -0.325 N 
ATOM     20  HN          0     109.548 164.391 140.920  0.00  0.00     0.169 HD
ATOM     21  C           0     111.275 165.235 142.980  0.00  0.00     0.034 C 
ATOM     22  C           0     111.523 165.852 144.195  0.00  0.00     0.003 C 
ATOM     23  C           0     112.034 165.127 145.265  0.00  0.00     0.000 C 
ATOM     24  C           0     112.254 163.786 145.150  0.00  0.00     0.000 C 
ATOM     25  C           0     111.988 163.130 143.937  0.00  0.00     0.000 C 
ATOM     26  C           0     111.998 161.727 143.851  0.00  0.00     0.000 C 
ATOM     27  C           0     111.837 161.127 142.638  0.00  0.00     0.000 C 
ATOM     28  C           0     111.722 161.876 141.477  0.00  0.00     0.003 C 
ATOM     29  C           0     111.743 163.274 141.509  0.00  0.00     0.039 C 
ATOM     30  C           0     111.674 163.891 142.781  0.00  0.00     0.006 C 
ATOM     31  C           0     110.510 164.306 138.073  0.00  0.00     0.006 A 
ENDROOT
BRANCH  11  32
ATOM     32  C           0     108.722 167.663 137.773  0.00  0.00     0.164 C 
BRANCH  32  33
ATOM     33  O           0     109.736 168.644 137.548  0.00  0.00    -0.378 OA
ATOM     34  H           0     110.199 168.765 138.388  0.00  0.00     0.211 HD
ENDBRANCH  32  33
ENDBRANCH  11  32
TORSDOF 2
ENDMDL
MODEL 6
REMARK VINA RESULT:      -7.5      7.667     11.339
REMARK  2 active torsions:
REMARK  status: ('A' for Active; 'I' for Inactive)
REMARK    1  A    between atoms: C_18  and  C_19 
REMARK    2  A    between atoms: C_19  and  O_22 
ROOT
ATOM      1  O           0     109.325 164.870 141.145  0.00  0.00    -0.287 OA
ATOM      2  C           0     110.405 164.536 141.574  0.00  0.00     0.196 C 
ATOM      3  C           0     110.812 165.101 142.858  0.00  0.00     0.039 A 
ATOM      4  C           0     111.300 164.214 143.824  0.00  0.00     0.003 A 
ATOM      5  C           0     111.724 164.643 145.069  0.00  0.00     0.000 A 
ATOM      6  C           0     111.627 165.954 145.417  0.00  0.00    -0.000 A 
ATOM      7  C           0     111.093 166.881 144.503  0.00  0.00    -0.000 A 
ATOM      8  C           0     110.892 168.209 144.921  0.00  0.00    -0.004 A 
ATOM      9  C           0     110.430 169.139 144.045  0.00  0.00    -0.023 A 
ATOM     10  C           0     110.200 170.556 144.504  0.00  0.00     0.031 C 
ATOM     11  C           0     110.173 168.795 142.725  0.00  0.00     0.006 A 
ATOM     12  C           0     110.355 167.495 142.273  0.00  0.00     0.032 A 
ATOM     13  C           0     110.115 167.164 140.870  0.00  0.00     0.133 C 
ATOM     14  N           0     109.288 167.588 139.945  0.00  0.00    -0.283 N 
ATOM     15  HN          0     108.726 168.437 140.007  1.00  0.00     0.188 HD
ATOM     16  N           0     109.290 166.769 138.941  0.00  0.00    -0.283 N 
ATOM     17  HN          0     108.680 166.836 138.125  1.00  0.00     0.188 HD
ATOM     18  C           0     110.190 165.847 139.134  0.00  0.00     0.133 C 
ATOM     19  N           0     110.971 166.284 140.197  0.00  0.00    -0.325 N 
ATOM     20  HN          0     111.875 166.031 140.435  0.00  0.00     0.169 HD
ATOM     21  C           0     110.433 164.528 138.537  0.00  0.00     0.034 C 
ATOM     22  C           0     110.049 164.239 137.238  0.00  0.00     0.003 C 
ATOM     23  C           0     110.367 163.015 136.662  0.00  0.00     0.000 C 
ATOM     24  C           0     111.103 162.096 137.351  0.00  0.00     0.000 C 
ATOM     25  C           0     111.526 162.372 138.661  0.00  0.00     0.000 C 
ATOM     26  C           0     112.460 161.548 139.313  0.00  0.00     0.000 C 
ATOM     27  C           0     112.770 161.786 140.619  0.00  0.00     0.000 C 
ATOM     28  C           0     112.139 162.793 141.334  0.00  0.00     0.003 C 
ATOM     29  C           0     111.178 163.615 140.737  0.00  0.00     0.039 C 
ATOM     30  C           0     111.029 163.520 139.333  0.00  0.00     0.006 C 
ATOM     31  C           0     110.750 166.481 143.186  0.00  0.00     0.006 A 
ENDROOT
BRANCH  11  32
ATOM     32  C           0     109.684 169.862 141.778  0.00  0.00     0.164 C 
BRANCH  32  33
ATOM     33  O           0     108.261 169.793 141.674  0.00  0.00    -0.378 OA
ATOM     34  H           0     107.935 169.455 142.519  0.00  0.00     0.211 HD
ENDBRANCH  32  33
ENDBRANCH  11  32
TORSDOF 2
ENDMDL
MODEL 7
REMARK VINA RESULT:      -7.5      8.892     12.321
REMARK  2 active torsions:
REMARK  status: ('A' for Active; 'I' for Inactive)
REMARK    1  A    between atoms: C_18  and  C_19 
REMARK    2  A    between atoms: C_19  and  O_22 
ROOT
ATOM      1  O           0     109.637 164.090 141.539  0.00  0.00    -0.287 OA
ATOM      2  C           0     110.733 163.583 141.597  0.00  0.00     0.196 C 
ATOM      3  C           0     111.366 163.521 142.912  0.00  0.00     0.039 A 
ATOM      4  C           0     111.908 162.292 143.306  0.00  0.00     0.003 A 
ATOM      5  C           0     112.540 162.123 144.524  0.00  0.00     0.000 A 
ATOM      6  C           0     112.607 163.149 145.414  0.00  0.00    -0.000 A 
ATOM      7  C           0     112.031 164.391 145.092  0.00  0.00    -0.000 A 
ATOM      8  C           0     112.007 165.404 146.069  0.00  0.00    -0.004 A 
ATOM      9  C           0     111.508 166.631 145.769  0.00  0.00    -0.023 A 
ATOM     10  C           0     111.470 167.706 146.825  0.00  0.00     0.031 C 
ATOM     11  C           0     111.038 166.907 144.493  0.00  0.00     0.006 A 
ATOM     12  C           0     111.040 165.935 143.502  0.00  0.00     0.032 A 
ATOM     13  C           0     110.576 166.258 142.154  0.00  0.00     0.133 C 
ATOM     14  N           0     109.666 167.058 141.653  0.00  0.00    -0.283 N 
ATOM     15  HN          0     109.194 167.803 142.167  1.00  0.00     0.188 HD
ATOM     16  N           0     109.454 166.764 140.409  0.00  0.00    -0.283 N 
ATOM     17  HN          0     108.743 167.192 139.815  1.00  0.00     0.188 HD
ATOM     18  C           0     110.289 165.837 140.033  0.00  0.00     0.133 C 
ATOM     19  N           0     111.248 165.750 141.036  0.00  0.00    -0.325 N 
ATOM     20  HN          0     112.151 165.404 140.988  0.00  0.00     0.169 HD
ATOM     21  C           0     110.330 164.911 138.895  0.00  0.00     0.034 C 
ATOM     22  C           0     109.741 165.229 137.682  0.00  0.00     0.003 C 
ATOM     23  C           0     109.867 164.377 136.591  0.00  0.00     0.000 C 
ATOM     24  C           0     110.611 163.238 136.684  0.00  0.00     0.000 C 
ATOM     25  C           0     111.239 162.903 137.895  0.00  0.00     0.000 C 
ATOM     26  C           0     112.180 161.862 137.963  0.00  0.00     0.000 C 
ATOM     27  C           0     112.692 161.497 139.173  0.00  0.00     0.000 C 
ATOM     28  C           0     112.258 162.097 140.345  0.00  0.00     0.003 C 
ATOM     29  C           0     111.297 163.113 140.330  0.00  0.00     0.039 C 
ATOM     30  C           0     110.943 163.646 139.067  0.00  0.00     0.006 C 
ATOM     31  C           0     111.471 164.617 143.808  0.00  0.00     0.006 A 
ENDROOT
BRANCH  11  32
ATOM     32  C           0     110.514 168.289 144.194  0.00  0.00     0.164 C 
BRANCH  32  33
ATOM     33  O           0     109.103 168.323 144.417  0.00  0.00    -0.378 OA
ATOM     34  H           0     108.757 167.459 144.154  0.00  0.00     0.211 HD
ENDBRANCH  32  33
ENDBRANCH  11  32
TORSDOF 2
ENDMDL
MODEL 8
REMARK VINA RESULT:      -7.5      9.337     11.461
REMARK  2 active torsions:
REMARK  status: ('A' for Active; 'I' for Inactive)
REMARK    1  A    between atoms: C_18  and  C_19 
REMARK    2  A    between atoms: C_19  and  O_22 
ROOT
ATOM      1  O           0     109.937 163.464 141.851  0.00  0.00    -0.287 OA
ATOM      2  C           0     110.254 164.630 141.863  0.00  0.00     0.196 C 
ATOM      3  C           0     109.977 165.405 140.655  0.00  0.00     0.039 A 
ATOM      4  C           0     109.337 166.639 140.816  0.00  0.00     0.003 A 
ATOM      5  C           0     109.038 167.458 139.743  0.00  0.00     0.000 A 
ATOM      6  C           0     109.312 167.058 138.473  0.00  0.00    -0.000 A 
ATOM      7  C           0     109.906 165.803 138.249  0.00  0.00    -0.000 A 
ATOM      8  C           0     110.075 165.356 136.925  0.00  0.00    -0.004 A 
ATOM      9  C           0     110.695 164.173 136.677  0.00  0.00    -0.023 A 
ATOM     10  C           0     110.857 163.693 135.258  0.00  0.00     0.031 C 
ATOM     11  C           0     111.188 163.404 137.722  0.00  0.00     0.006 A 
ATOM     12  C           0     111.038 163.807 139.042  0.00  0.00     0.032 A 
ATOM     13  C           0     111.599 163.000 140.124  0.00  0.00     0.133 C 
ATOM     14  N           0     111.792 161.719 140.322  0.00  0.00    -0.283 N 
ATOM     15  HN          0     111.736 161.000 139.600  1.00  0.00     0.188 HD
ATOM     16  N           0     112.064 161.499 141.570  0.00  0.00    -0.283 N 
ATOM     17  HN          0     112.185 160.579 141.994  1.00  0.00     0.188 HD
ATOM     18  C           0     112.159 162.636 142.200  0.00  0.00     0.133 C 
ATOM     19  N           0     112.213 163.619 141.220  0.00  0.00    -0.325 N 
ATOM     20  HN          0     112.565 164.520 141.277  0.00  0.00     0.169 HD
ATOM     21  C           0     112.132 163.013 143.619  0.00  0.00     0.034 C 
ATOM     22  C           0     112.550 162.139 144.609  0.00  0.00     0.003 C 
ATOM     23  C           0     112.600 162.546 145.936  0.00  0.00     0.000 C 
ATOM     24  C           0     112.282 163.828 146.280  0.00  0.00     0.000 C 
ATOM     25  C           0     111.878 164.742 145.294  0.00  0.00     0.000 C 
ATOM     26  C           0     111.755 166.112 145.579  0.00  0.00     0.000 C 
ATOM     27  C           0     111.262 166.955 144.628  0.00  0.00     0.000 C 
ATOM     28  C           0     110.826 166.476 143.402  0.00  0.00     0.003 C 
ATOM     29  C           0     110.896 165.115 143.087  0.00  0.00     0.039 C 
ATOM     30  C           0     111.617 164.283 143.976  0.00  0.00     0.006 C 
ATOM     31  C           0     110.316 164.993 139.340  0.00  0.00     0.006 A 
ENDROOT
BRANCH  11  32
ATOM     32  C           0     111.891 162.109 137.402  0.00  0.00     0.164 C 
BRANCH  32  33
ATOM     33  O           0     110.945 161.039 137.405  0.00  0.00    -0.378 OA
ATOM     34  H           0     111.313 160.338 136.851  0.00  0.00     0.211 HD
ENDBRANCH  32  33
ENDBRANCH  11  32
TORSDOF 2
ENDMDL
MODEL 9
REMARK VINA RESULT:      -7.5      7.947      9.731
REMARK  2 active torsions:
REMARK  status: ('A' for Active; 'I' for Inactive)
REMARK    1  A    between atoms: C_18  and  C_19 
REMARK    2  A    between atoms: C_19  and  O_22 
ROOT
ATOM      1  O           0     111.166 166.544 138.248  0.00  0.00    -0.287 OA
ATOM      2  C           0     110.932 165.403 138.570  0.00  0.00     0.196 C 
ATOM      3  C           0     111.048 164.383 137.530  0.00  0.00     0.039 A 
ATOM      4  C           0     111.784 163.233 137.838  0.00  0.00     0.003 A 
ATOM      5  C           0     111.948 162.201 136.933  0.00  0.00     0.000 A 
ATOM      6  C           0     111.437 162.297 135.676  0.00  0.00    -0.000 A 
ATOM      7  C           0     110.734 163.455 135.296  0.00  0.00    -0.000 A 
ATOM      8  C           0     110.314 163.587 133.959  0.00  0.00    -0.004 A 
ATOM      9  C           0     109.586 164.668 133.575  0.00  0.00    -0.023 A 
ATOM     10  C           0     109.154 164.811 132.139  0.00  0.00     0.031 C 
ATOM     11  C           0     109.230 165.640 134.499  0.00  0.00     0.006 A 
ATOM     12  C           0     109.627 165.549 135.826  0.00  0.00     0.032 A 
ATOM     13  C           0     109.208 166.565 136.790  0.00  0.00     0.133 C 
ATOM     14  N           0     108.969 167.853 136.736  0.00  0.00    -0.283 N 
ATOM     15  HN          0     108.855 168.392 135.877  1.00  0.00     0.188 HD
ATOM     16  N           0     108.900 168.341 137.935  0.00  0.00    -0.283 N 
ATOM     17  HN          0     108.794 169.330 138.163  1.00  0.00     0.188 HD
ATOM     18  C           0     108.988 167.374 138.803  0.00  0.00     0.133 C 
ATOM     19  N           0     108.831 166.194 138.086  0.00  0.00    -0.325 N 
ATOM     20  HN          0     108.552 165.321 138.401  0.00  0.00     0.169 HD
ATOM     21  C           0     109.280 167.327 140.241  0.00  0.00     0.034 C 
ATOM     22  C           0     108.981 168.391 141.076  0.00  0.00     0.003 C 
ATOM     23  C           0     109.184 168.293 142.447  0.00  0.00     0.000 C 
ATOM     24  C           0     109.637 167.131 142.999  0.00  0.00     0.000 C 
ATOM     25  C           0     109.925 166.028 142.178  0.00  0.00     0.000 C 
ATOM     26  C           0     110.183 164.760 142.728  0.00  0.00     0.000 C 
ATOM     27  C           0     110.560 163.738 141.909  0.00  0.00     0.000 C 
ATOM     28  C           0     110.750 163.938 140.551  0.00  0.00     0.003 C 
ATOM     29  C           0     110.540 165.191 139.965  0.00  0.00     0.039 C 
ATOM     30  C           0     109.928 166.184 140.767  0.00  0.00     0.006 C 
ATOM     31  C           0     110.464 164.479 136.240  0.00  0.00     0.006 A 
ENDROOT
BRANCH  11  32
ATOM     32  C           0     108.400 166.812 134.037  0.00  0.00     0.164 C 
BRANCH  32  33
ATOM     33  O           0     109.261 167.895 133.682  0.00  0.00    -0.378 OA
ATOM     34  H           0     108.734 168.510 133.155  0.00  0.00     0.211 HD
ENDBRANCH  32  33
ENDBRANCH  11  32
TORSDOF 2
ENDMDL
