REMARK  1 active torsions:
REMARK  status: ('A' for Active; 'I' for Inactive)
REMARK    1  A    between atoms: O_1  and  N_2 
ROOT
ATOM      1  N           0       0.040  -1.244   0.805  0.00  0.00    -0.187 N 
ATOM      2  C           0       1.120  -1.816   0.175  0.00  0.00     0.161 C 
ATOM      3  N           0       0.695  -2.950  -0.340  0.00  0.00    -0.281 N 
ATOM      4  HN          0       1.288  -3.708  -0.678  1.00  0.00     0.188 HD
ATOM      5  N           0      -0.599  -2.946  -0.348  0.00  0.00    -0.281 N 
ATOM      6  HN          0      -1.185  -3.702  -0.703  1.00  0.00     0.188 HD
ATOM      7  C           0      -1.044  -1.831   0.165  0.00  0.00     0.161 C 
ATOM      8  C           0      -2.350  -1.163   0.108  0.00  0.00     0.024 C 
ATOM      9  C           0      -3.506  -1.922   0.226  0.00  0.00     0.016 C 
ATOM     10  C           0      -4.758  -1.327   0.235  0.00  0.00     0.002 C 
ATOM     11  C           0      -4.872   0.026   0.141  0.00  0.00     0.012 C 
ATOM     12  C           0      -3.726   0.828  -0.002  0.00  0.00    -0.024 C 
ATOM     13  C           0      -3.862   2.227  -0.021  0.00  0.00     0.012 C 
ATOM     14  C           0      -2.781   3.006  -0.293  0.00  0.00     0.002 C 
ATOM     15  C           0      -1.546   2.436  -0.541  0.00  0.00     0.016 C 
ATOM     16  C           0      -1.336   1.056  -0.455  0.00  0.00     0.027 C 
ATOM     17  C           0       0.008   0.552  -0.718  0.00  0.00     0.194 C 
ATOM     18  O           0       0.092  -0.401  -1.466  0.00  0.00    -0.287 OA
ATOM     19  C           0       1.280   1.075  -0.225  0.00  0.00     0.027 C 
ATOM     20  C           0       1.373   2.413   0.171  0.00  0.00     0.016 C 
ATOM     21  C           0       2.596   2.993   0.471  0.00  0.00     0.002 C 
ATOM     22  C           0       3.754   2.279   0.390  0.00  0.00     0.012 C 
ATOM     23  C           0       3.700   0.912   0.077  0.00  0.00    -0.024 C 
ATOM     24  C           0       4.873   0.162  -0.120  0.00  0.00     0.012 C 
ATOM     25  C           0       4.806  -1.194  -0.238  0.00  0.00     0.002 C 
ATOM     26  C           0       3.586  -1.853  -0.154  0.00  0.00     0.016 C 
ATOM     27  C           0       2.410  -1.139  -0.004  0.00  0.00     0.024 C 
ATOM     28  C           0       2.439   0.275  -0.051  0.00  0.00     0.002 C 
ATOM     29  C           0      -2.442   0.233  -0.121  0.00  0.00     0.002 C 
ENDROOT
BRANCH   1  30
ATOM     30  O           0       0.025  -0.264   1.825  0.00  0.00    -0.279 OA
ATOM     31  H           0       0.001   0.597   1.384  0.00  0.00     0.245 HD
ENDBRANCH   1  30
TORSDOF 1
