REMARK  0 active torsions:
REMARK  status: ('A' for Active; 'I' for Inactive)
ROOT
ATOM      1  O           0      -0.098  -0.408  -1.433  0.00  0.00    -0.287 OA
ATOM      2  C           0      -0.006   0.545  -0.694  0.00  0.00     0.194 C 
ATOM      3  C           0       1.341   1.043  -0.421  0.00  0.00     0.027 C 
ATOM      4  C           0       1.560   2.420  -0.525  0.00  0.00     0.016 C 
ATOM      5  C           0       2.796   2.988  -0.275  0.00  0.00     0.002 C 
ATOM      6  C           0       3.868   2.208   0.029  0.00  0.00     0.012 C 
ATOM      7  C           0       3.718   0.810   0.084  0.00  0.00    -0.024 C 
ATOM      8  C           0       4.858   0.005   0.261  0.00  0.00     0.012 C 
ATOM      9  C           0       4.734  -1.345   0.382  0.00  0.00     0.002 C 
ATOM     10  C           0       3.481  -1.937   0.355  0.00  0.00     0.016 C 
ATOM     11  C           0       2.332  -1.176   0.184  0.00  0.00     0.021 C 
ATOM     12  C           0       1.027  -1.831   0.219  0.00  0.00     0.132 C 
ATOM     13  N           0       0.589  -3.030  -0.089  0.00  0.00    -0.283 N 
ATOM     14  HN          0       1.177  -3.849  -0.247  1.00  0.00     0.188 HD
ATOM     15  N           0      -0.707  -3.013  -0.161  0.00  0.00    -0.283 N 
ATOM     16  HN          0      -1.290  -3.795  -0.460  1.00  0.00     0.188 HD
ATOM     17  C           0      -1.150  -1.844   0.207  0.00  0.00     0.132 C 
ATOM     18  N           0      -0.074  -1.192   0.798  0.00  0.00    -0.325 N 
ATOM     19  HN          0      -0.076  -0.462   1.435  0.00  0.00     0.169 HD
ATOM     20  C           0      -2.428  -1.141   0.043  0.00  0.00     0.021 C 
ATOM     21  C           0      -3.617  -1.831  -0.126  0.00  0.00     0.016 C 
ATOM     22  C           0      -4.826  -1.150  -0.182  0.00  0.00     0.002 C 
ATOM     23  C           0      -4.869   0.203  -0.020  0.00  0.00     0.012 C 
ATOM     24  C           0      -3.681   0.925   0.177  0.00  0.00    -0.024 C 
ATOM     25  C           0      -3.703   2.275   0.569  0.00  0.00     0.012 C 
ATOM     26  C           0      -2.535   2.973   0.639  0.00  0.00     0.002 C 
ATOM     27  C           0      -1.330   2.392   0.276  0.00  0.00     0.016 C 
ATOM     28  C           0      -1.264   1.060  -0.147  0.00  0.00     0.027 C 
ATOM     29  C           0      -2.430   0.275   0.009  0.00  0.00     0.002 C 
ATOM     30  C           0       2.435   0.218  -0.050  0.00  0.00     0.002 C 
ENDROOT
TORSDOF 0
