MODEL 1
REMARK VINA RESULT:      -8.6      0.000      0.000
REMARK  0 active torsions:
REMARK  status: ('A' for Active; 'I' for Inactive)
ROOT
ATOM      1  O           0     112.506 174.379 135.596  0.00  0.00    -0.287 OA
ATOM      2  C           0     111.516 173.743 135.877  0.00  0.00     0.194 C 
ATOM      3  C           0     110.870 173.009 134.791  0.00  0.00     0.027 C 
ATOM      4  C           0     110.525 171.674 135.021  0.00  0.00     0.016 C 
ATOM      5  C           0     109.900 170.900 134.060  0.00  0.00     0.002 C 
ATOM      6  C           0     109.649 171.404 132.822  0.00  0.00     0.012 C 
ATOM      7  C           0     110.034 172.722 132.515  0.00  0.00    -0.024 C 
ATOM      8  C           0     109.897 173.186 131.194  0.00  0.00     0.012 C 
ATOM      9  C           0     110.201 174.476 130.884  0.00  0.00     0.002 C 
ATOM     10  C           0     110.627 175.351 131.872  0.00  0.00     0.016 C 
ATOM     11  C           0     110.772 174.931 133.187  0.00  0.00     0.021 C 
ATOM     12  C           0     111.168 175.897 134.208  0.00  0.00     0.132 C 
ATOM     13  N           0     111.887 176.996 134.208  0.00  0.00    -0.283 N 
ATOM     14  HN          0     112.169 177.515 133.376  1.00  0.00     0.188 HD
ATOM     15  N           0     112.185 177.319 135.430  0.00  0.00    -0.283 N 
ATOM     16  HN          0     112.800 178.086 135.702  1.00  0.00     0.188 HD
ATOM     17  C           0     111.577 176.515 136.256  0.00  0.00     0.132 C 
ATOM     18  N           0     110.637 175.824 135.500  0.00  0.00    -0.325 N 
ATOM     19  HN          0     109.825 175.381 135.790  0.00  0.00     0.169 HD
ATOM     20  C           0     111.757 176.185 137.675  0.00  0.00     0.021 C 
ATOM     21  C           0     112.333 177.083 138.558  0.00  0.00     0.016 C 
ATOM     22  C           0     112.405 176.790 139.914  0.00  0.00     0.002 C 
ATOM     23  C           0     111.865 175.639 140.406  0.00  0.00     0.012 C 
ATOM     24  C           0     111.253 174.722 139.535  0.00  0.00    -0.024 C 
ATOM     25  C           0     110.494 173.645 140.025  0.00  0.00     0.012 C 
ATOM     26  C           0     110.012 172.713 139.155  0.00  0.00     0.002 C 
ATOM     27  C           0     110.305 172.777 137.802  0.00  0.00     0.016 C 
ATOM     28  C           0     111.080 173.815 137.274  0.00  0.00     0.027 C 
ATOM     29  C           0     111.375 174.900 138.132  0.00  0.00     0.002 C 
ATOM     30  C           0     110.565 173.569 133.522  0.00  0.00     0.002 C 
ENDROOT
TORSDOF 0
ENDMDL
MODEL 2
REMARK VINA RESULT:      -8.5     22.456     23.377
REMARK  0 active torsions:
REMARK  status: ('A' for Active; 'I' for Inactive)
ROOT
ATOM      1  O           0      94.589 187.842 142.036  0.00  0.00    -0.287 OA
ATOM      2  C           0      93.547 188.447 141.935  0.00  0.00     0.194 C 
ATOM      3  C           0      92.865 188.380 140.643  0.00  0.00     0.027 C 
ATOM      4  C           0      91.496 188.096 140.643  0.00  0.00     0.016 C 
ATOM      5  C           0      90.761 188.024 139.474  0.00  0.00     0.002 C 
ATOM      6  C           0      91.367 188.172 138.265  0.00  0.00     0.012 C 
ATOM      7  C           0      92.755 188.395 138.205  0.00  0.00    -0.024 C 
ATOM      8  C           0      93.393 188.408 136.951  0.00  0.00     0.012 C 
ATOM      9  C           0      94.722 188.686 136.859  0.00  0.00     0.002 C 
ATOM     10  C           0      95.455 188.981 137.999  0.00  0.00     0.016 C 
ATOM     11  C           0      94.860 188.981 139.253  0.00  0.00     0.021 C 
ATOM     12  C           0      95.653 189.354 140.422  0.00  0.00     0.132 C 
ATOM     13  N           0      96.924 189.265 140.740  0.00  0.00    -0.283 N 
ATOM     14  HN          0      97.682 189.070 140.086  1.00  0.00     0.188 HD
ATOM     15  N           0      97.067 189.466 142.015  0.00  0.00    -0.283 N 
ATOM     16  HN          0      97.943 189.375 142.530  1.00  0.00     0.188 HD
ATOM     17  C           0      95.920 189.801 142.536  0.00  0.00     0.132 C 
ATOM     18  N           0      95.078 190.085 141.467  0.00  0.00    -0.325 N 
ATOM     19  HN          0      94.279 190.633 141.446  0.00  0.00     0.169 HD
ATOM     20  C           0      95.397 189.840 143.907  0.00  0.00     0.021 C 
ATOM     21  C           0      96.236 189.994 144.998  0.00  0.00     0.016 C 
ATOM     22  C           0      95.713 190.126 146.277  0.00  0.00     0.002 C 
ATOM     23  C           0      94.365 190.158 146.476  0.00  0.00     0.012 C 
ATOM     24  C           0      93.490 190.029 145.385  0.00  0.00    -0.024 C 
ATOM     25  C           0      92.114 190.280 145.518  0.00  0.00     0.012 C 
ATOM     26  C           0      91.281 190.034 144.468  0.00  0.00     0.002 C 
ATOM     27  C           0      91.759 189.485 143.288  0.00  0.00     0.016 C 
ATOM     28  C           0      93.117 189.192 143.121  0.00  0.00     0.027 C 
ATOM     29  C           0      94.006 189.667 144.113  0.00  0.00     0.002 C 
ATOM     30  C           0      93.504 188.593 139.394  0.00  0.00     0.002 C 
ENDROOT
TORSDOF 0
ENDMDL
MODEL 3
REMARK VINA RESULT:      -8.4      0.831      5.804
REMARK  0 active torsions:
REMARK  status: ('A' for Active; 'I' for Inactive)
ROOT
ATOM      1  O           0     109.864 175.378 135.591  0.00  0.00    -0.287 OA
ATOM      2  C           0     110.237 174.266 135.885  0.00  0.00     0.194 C 
ATOM      3  C           0     110.667 174.055 137.266  0.00  0.00     0.027 C 
ATOM      4  C           0     110.167 172.937 137.941  0.00  0.00     0.016 C 
ATOM      5  C           0     110.525 172.647 139.245  0.00  0.00     0.002 C 
ATOM      6  C           0     111.341 173.482 139.942  0.00  0.00     0.012 C 
ATOM      7  C           0     111.822 174.655 139.331  0.00  0.00    -0.024 C 
ATOM      8  C           0     112.550 175.579 140.102  0.00  0.00     0.012 C 
ATOM      9  C           0     113.081 176.690 139.522  0.00  0.00     0.002 C 
ATOM     10  C           0     112.929 176.909 138.162  0.00  0.00     0.016 C 
ATOM     11  C           0     112.219 176.018 137.367  0.00  0.00     0.021 C 
ATOM     12  C           0     112.131 176.255 135.929  0.00  0.00     0.132 C 
ATOM     13  N           0     112.141 177.325 135.168  0.00  0.00    -0.283 N 
ATOM     14  HN          0     112.426 178.258 135.469  1.00  0.00     0.188 HD
ATOM     15  N           0     111.732 177.014 133.976  0.00  0.00    -0.283 N 
ATOM     16  HN          0     111.573 177.677 133.217  1.00  0.00     0.188 HD
ATOM     17  C           0     111.557 175.726 133.896  0.00  0.00     0.132 C 
ATOM     18  N           0     112.153 175.184 135.030  0.00  0.00    -0.325 N 
ATOM     19  HN          0     112.484 174.285 135.177  0.00  0.00     0.169 HD
ATOM     20  C           0     110.839 174.851 132.961  0.00  0.00     0.021 C 
ATOM     21  C           0     110.609 175.229 131.649  0.00  0.00     0.016 C 
ATOM     22  C           0     110.014 174.348 130.755  0.00  0.00     0.002 C 
ATOM     23  C           0     109.695 173.079 131.139  0.00  0.00     0.012 C 
ATOM     24  C           0     109.940 172.662 132.457  0.00  0.00    -0.024 C 
ATOM     25  C           0     109.835 171.309 132.827  0.00  0.00     0.012 C 
ATOM     26  C           0     109.968 170.958 134.136  0.00  0.00     0.002 C 
ATOM     27  C           0     110.149 171.918 135.121  0.00  0.00     0.016 C 
ATOM     28  C           0     110.231 173.278 134.803  0.00  0.00     0.027 C 
ATOM     29  C           0     110.332 173.615 133.433  0.00  0.00     0.002 C 
ATOM     30  C           0     111.565 174.909 137.959  0.00  0.00     0.002 C 
ENDROOT
TORSDOF 0
ENDMDL
MODEL 4
REMARK VINA RESULT:      -8.2      3.004      4.917
REMARK  0 active torsions:
REMARK  status: ('A' for Active; 'I' for Inactive)
ROOT
ATOM      1  O           0     113.072 174.894 140.455  0.00  0.00    -0.287 OA
ATOM      2  C           0     112.099 174.233 140.732  0.00  0.00     0.194 C 
ATOM      3  C           0     111.469 173.493 139.640  0.00  0.00     0.027 C 
ATOM      4  C           0     111.155 172.148 139.859  0.00  0.00     0.016 C 
ATOM      5  C           0     110.548 171.368 138.892  0.00  0.00     0.002 C 
ATOM      6  C           0     110.283 171.876 137.659  0.00  0.00     0.012 C 
ATOM      7  C           0     110.637 173.205 137.363  0.00  0.00    -0.024 C 
ATOM      8  C           0     110.487 173.677 136.046  0.00  0.00     0.012 C 
ATOM      9  C           0     110.760 174.977 135.746  0.00  0.00     0.002 C 
ATOM     10  C           0     111.166 175.853 136.741  0.00  0.00     0.016 C 
ATOM     11  C           0     111.324 175.425 138.053  0.00  0.00     0.021 C 
ATOM     12  C           0     111.697 176.392 139.082  0.00  0.00     0.132 C 
ATOM     13  N           0     112.391 177.507 139.090  0.00  0.00    -0.283 N 
ATOM     14  HN          0     112.659 178.040 138.262  1.00  0.00     0.188 HD
ATOM     15  N           0     112.682 177.827 140.314  0.00  0.00    -0.283 N 
ATOM     16  HN          0     113.279 178.606 140.592  1.00  0.00     0.188 HD
ATOM     17  C           0     112.094 177.002 141.134  0.00  0.00     0.132 C 
ATOM     18  N           0     111.169 176.296 140.373  0.00  0.00    -0.325 N 
ATOM     19  HN          0     110.369 175.831 140.660  0.00  0.00     0.169 HD
ATOM     20  C           0     112.283 176.665 142.550  0.00  0.00     0.021 C 
ATOM     21  C           0     112.839 177.568 143.440  0.00  0.00     0.016 C 
ATOM     22  C           0     112.920 177.266 144.793  0.00  0.00     0.002 C 
ATOM     23  C           0     112.407 176.098 145.276  0.00  0.00     0.012 C 
ATOM     24  C           0     111.816 175.175 144.398  0.00  0.00    -0.024 C 
ATOM     25  C           0     111.083 174.076 144.879  0.00  0.00     0.012 C 
ATOM     26  C           0     110.623 173.140 144.002  0.00  0.00     0.002 C 
ATOM     27  C           0     110.912 173.222 142.649  0.00  0.00     0.016 C 
ATOM     28  C           0     111.662 174.283 142.130  0.00  0.00     0.027 C 
ATOM     29  C           0     111.932 175.367 142.996  0.00  0.00     0.002 C 
ATOM     30  C           0     111.149 174.056 138.377  0.00  0.00     0.002 C 
ENDROOT
TORSDOF 0
ENDMDL
MODEL 5
REMARK VINA RESULT:      -8.2      9.275     12.233
REMARK  0 active torsions:
REMARK  status: ('A' for Active; 'I' for Inactive)
ROOT
ATOM      1  O           0     111.895 164.661 137.608  0.00  0.00    -0.287 OA
ATOM      2  C           0     110.829 165.005 138.064  0.00  0.00     0.194 C 
ATOM      3  C           0     110.665 164.902 139.513  0.00  0.00     0.027 C 
ATOM      4  C           0     110.132 166.004 140.188  0.00  0.00     0.016 C 
ATOM      5  C           0     109.928 165.998 141.556  0.00  0.00     0.002 C 
ATOM      6  C           0     110.297 164.926 142.307  0.00  0.00     0.012 C 
ATOM      7  C           0     110.898 163.816 141.687  0.00  0.00    -0.024 C 
ATOM      8  C           0     111.402 162.774 142.486  0.00  0.00     0.012 C 
ATOM      9  C           0     111.930 161.659 141.909  0.00  0.00     0.002 C 
ATOM     10  C           0     111.954 161.530 140.530  0.00  0.00     0.016 C 
ATOM     11  C           0     111.464 162.536 139.707  0.00  0.00     0.021 C 
ATOM     12  C           0     111.454 162.338 138.260  0.00  0.00     0.132 C 
ATOM     13  N           0     112.198 161.657 137.418  0.00  0.00    -0.283 N 
ATOM     14  HN          0     112.865 160.930 137.677  1.00  0.00     0.188 HD
ATOM     15  N           0     111.953 162.052 136.206  0.00  0.00    -0.283 N 
ATOM     16  HN          0     112.453 161.740 135.373  1.00  0.00     0.188 HD
ATOM     17  C           0     110.972 162.910 136.216  0.00  0.00     0.132 C 
ATOM     18  N           0     110.403 162.831 137.481  0.00  0.00    -0.325 N 
ATOM     19  HN          0     109.510 163.076 137.767  0.00  0.00     0.169 HD
ATOM     20  C           0     110.475 163.899 135.253  0.00  0.00     0.021 C 
ATOM     21  C           0     110.681 163.751 133.891  0.00  0.00     0.016 C 
ATOM     22  C           0     110.119 164.647 132.991  0.00  0.00     0.002 C 
ATOM     23  C           0     109.313 165.657 133.427  0.00  0.00     0.012 C 
ATOM     24  C           0     109.068 165.816 134.801  0.00  0.00    -0.024 C 
ATOM     25  C           0     108.074 166.694 135.268  0.00  0.00     0.012 C 
ATOM     26  C           0     107.943 166.907 136.608  0.00  0.00     0.002 C 
ATOM     27  C           0     108.808 166.317 137.515  0.00  0.00     0.016 C 
ATOM     28  C           0     109.829 165.458 137.094  0.00  0.00     0.027 C 
ATOM     29  C           0     109.813 165.054 135.738  0.00  0.00     0.002 C 
ATOM     30  C           0     111.005 163.752 140.273  0.00  0.00     0.002 C 
ENDROOT
TORSDOF 0
ENDMDL
MODEL 6
REMARK VINA RESULT:      -8.1      3.069      7.651
REMARK  0 active torsions:
REMARK  status: ('A' for Active; 'I' for Inactive)
ROOT
ATOM      1  O           0     110.569 176.070 140.666  0.00  0.00    -0.287 OA
ATOM      2  C           0     110.911 174.940 140.928  0.00  0.00     0.194 C 
ATOM      3  C           0     111.352 174.683 142.298  0.00  0.00     0.027 C 
ATOM      4  C           0     110.827 173.565 142.952  0.00  0.00     0.016 C 
ATOM      5  C           0     111.191 173.231 144.244  0.00  0.00     0.002 C 
ATOM      6  C           0     112.040 174.024 144.951  0.00  0.00     0.012 C 
ATOM      7  C           0     112.549 175.197 144.363  0.00  0.00    -0.024 C 
ATOM      8  C           0     113.313 176.081 145.146  0.00  0.00     0.012 C 
ATOM      9  C           0     113.870 177.189 144.587  0.00  0.00     0.002 C 
ATOM     10  C           0     113.709 177.446 143.234  0.00  0.00     0.016 C 
ATOM     11  C           0     112.963 176.596 142.427  0.00  0.00     0.021 C 
ATOM     12  C           0     112.865 176.870 140.996  0.00  0.00     0.132 C 
ATOM     13  N           0     112.898 177.959 140.262  0.00  0.00    -0.283 N 
ATOM     14  HN          0     113.215 178.875 140.581  1.00  0.00     0.188 HD
ATOM     15  N           0     112.466 177.689 139.068  0.00  0.00    -0.283 N 
ATOM     16  HN          0     112.317 178.375 138.327  1.00  0.00     0.188 HD
ATOM     17  C           0     112.251 176.408 138.959  0.00  0.00     0.132 C 
ATOM     18  N           0     112.844 175.822 140.071  0.00  0.00    -0.325 N 
ATOM     19  HN          0     113.149 174.910 140.192  0.00  0.00     0.169 HD
ATOM     20  C           0     111.496 175.579 138.013  0.00  0.00     0.021 C 
ATOM     21  C           0     111.261 175.996 136.713  0.00  0.00     0.016 C 
ATOM     22  C           0     110.629 175.155 135.806  0.00  0.00     0.002 C 
ATOM     23  C           0     110.276 173.887 136.163  0.00  0.00     0.012 C 
ATOM     24  C           0     110.525 173.430 137.467  0.00  0.00    -0.024 C 
ATOM     25  C           0     110.384 172.073 137.805  0.00  0.00     0.012 C 
ATOM     26  C           0     110.522 171.686 139.104  0.00  0.00     0.002 C 
ATOM     27  C           0     110.743 172.615 140.109  0.00  0.00     0.016 C 
ATOM     28  C           0     110.862 173.980 139.823  0.00  0.00     0.027 C 
ATOM     29  C           0     110.957 174.348 138.461  0.00  0.00     0.002 C 
ATOM     30  C           0     112.283 175.492 143.000  0.00  0.00     0.002 C 
ENDROOT
TORSDOF 0
ENDMDL
MODEL 7
REMARK VINA RESULT:      -8.0      7.780      9.139
REMARK  0 active torsions:
REMARK  status: ('A' for Active; 'I' for Inactive)
ROOT
ATOM      1  O           0     110.886 166.796 137.597  0.00  0.00    -0.287 OA
ATOM      2  C           0     110.693 165.616 137.782  0.00  0.00     0.194 C 
ATOM      3  C           0     110.692 164.753 136.602  0.00  0.00     0.027 C 
ATOM      4  C           0     111.442 163.574 136.656  0.00  0.00     0.016 C 
ATOM      5  C           0     111.494 162.688 135.596  0.00  0.00     0.002 C 
ATOM      6  C           0     110.853 162.965 134.428  0.00  0.00     0.012 C 
ATOM      7  C           0     110.136 164.169 134.298  0.00  0.00    -0.024 C 
ATOM      8  C           0     109.595 164.512 133.045  0.00  0.00     0.012 C 
ATOM      9  C           0     108.842 165.637 132.906  0.00  0.00     0.002 C 
ATOM     10  C           0     108.583 166.445 134.003  0.00  0.00     0.016 C 
ATOM     11  C           0     109.098 166.139 135.256  0.00  0.00     0.021 C 
ATOM     12  C           0     108.754 166.983 136.397  0.00  0.00     0.132 C 
ATOM     13  N           0     108.451 168.252 136.547  0.00  0.00    -0.283 N 
ATOM     14  HN          0     108.198 168.890 135.792  1.00  0.00     0.188 HD
ATOM     15  N           0     108.523 168.570 137.803  0.00  0.00    -0.283 N 
ATOM     16  HN          0     108.412 169.511 138.179  1.00  0.00     0.188 HD
ATOM     17  C           0     108.760 167.502 138.512  0.00  0.00     0.132 C 
ATOM     18  N           0     108.552 166.421 137.662  0.00  0.00    -0.325 N 
ATOM     19  HN          0     108.342 165.501 137.882  0.00  0.00     0.169 HD
ATOM     20  C           0     109.240 167.272 139.879  0.00  0.00     0.021 C 
ATOM     21  C           0     109.059 168.214 140.878  0.00  0.00     0.016 C 
ATOM     22  C           0     109.435 167.937 142.186  0.00  0.00     0.002 C 
ATOM     23  C           0     109.940 166.715 142.519  0.00  0.00     0.012 C 
ATOM     24  C           0     110.112 165.733 141.531  0.00  0.00    -0.024 C 
ATOM     25  C           0     110.414 164.402 141.869  0.00  0.00     0.012 C 
ATOM     26  C           0     110.686 163.504 140.881  0.00  0.00     0.002 C 
ATOM     27  C           0     110.726 163.891 139.551  0.00  0.00     0.016 C 
ATOM     28  C           0     110.460 165.211 139.171  0.00  0.00     0.027 C 
ATOM     29  C           0     109.948 166.078 140.164  0.00  0.00     0.002 C 
ATOM     30  C           0     109.971 165.033 135.412  0.00  0.00     0.002 C 
ENDROOT
TORSDOF 0
ENDMDL
MODEL 8
REMARK VINA RESULT:      -8.0      8.131     10.075
REMARK  0 active torsions:
REMARK  status: ('A' for Active; 'I' for Inactive)
ROOT
ATOM      1  O           0     111.303 166.587 140.119  0.00  0.00    -0.287 OA
ATOM      2  C           0     110.945 165.436 140.015  0.00  0.00     0.194 C 
ATOM      3  C           0     110.532 164.990 138.686  0.00  0.00     0.027 C 
ATOM      4  C           0     111.051 163.780 138.214  0.00  0.00     0.016 C 
ATOM      5  C           0     110.711 163.268 136.975  0.00  0.00     0.002 C 
ATOM      6  C           0     109.893 163.963 136.140  0.00  0.00     0.012 C 
ATOM      7  C           0     109.394 165.217 136.538  0.00  0.00    -0.024 C 
ATOM      8  C           0     108.665 165.989 135.616  0.00  0.00     0.012 C 
ATOM      9  C           0     108.116 167.175 135.994  0.00  0.00     0.002 C 
ATOM     10  C           0     108.251 167.623 137.299  0.00  0.00     0.016 C 
ATOM     11  C           0     108.961 166.888 138.239  0.00  0.00     0.021 C 
ATOM     12  C           0     109.031 167.366 139.618  0.00  0.00     0.132 C 
ATOM     13  N           0     109.001 168.549 140.186  0.00  0.00    -0.283 N 
ATOM     14  HN          0     108.710 169.414 139.730  1.00  0.00     0.188 HD
ATOM     15  N           0     109.400 168.450 141.417  0.00  0.00    -0.283 N 
ATOM     16  HN          0     109.545 169.233 142.054  1.00  0.00     0.188 HD
ATOM     17  C           0     109.588 167.195 141.716  0.00  0.00     0.132 C 
ATOM     18  N           0     109.010 166.463 140.685  0.00  0.00    -0.325 N 
ATOM     19  HN          0     108.691 165.548 140.690  0.00  0.00     0.169 HD
ATOM     20  C           0     110.305 166.500 142.792  0.00  0.00     0.021 C 
ATOM     21  C           0     110.517 167.098 144.023  0.00  0.00     0.016 C 
ATOM     22  C           0     111.111 166.388 145.058  0.00  0.00     0.002 C 
ATOM     23  C           0     111.448 165.076 144.898  0.00  0.00     0.012 C 
ATOM     24  C           0     111.222 164.439 143.667  0.00  0.00    -0.024 C 
ATOM     25  C           0     111.345 163.045 143.533  0.00  0.00     0.012 C 
ATOM     26  C           0     111.230 162.476 142.301  0.00  0.00     0.002 C 
ATOM     27  C           0     111.050 163.253 141.167  0.00  0.00     0.016 C 
ATOM     28  C           0     110.950 164.646 141.249  0.00  0.00     0.027 C 
ATOM     29  C           0     110.830 165.209 142.541  0.00  0.00     0.002 C 
ATOM     30  C           0     109.633 165.702 137.850  0.00  0.00     0.002 C 
ENDROOT
TORSDOF 0
ENDMDL
MODEL 9
REMARK VINA RESULT:      -7.9     23.444     25.108
REMARK  0 active torsions:
REMARK  status: ('A' for Active; 'I' for Inactive)
ROOT
ATOM      1  O           0     133.605 170.536 143.499  0.00  0.00    -0.287 OA
ATOM      2  C           0     133.727 171.724 143.308  0.00  0.00     0.194 C 
ATOM      3  C           0     133.549 172.196 141.936  0.00  0.00     0.027 C 
ATOM      4  C           0     132.723 173.305 141.730  0.00  0.00     0.016 C 
ATOM      5  C           0     132.502 173.833 140.471  0.00  0.00     0.002 C 
ATOM      6  C           0     133.043 173.247 139.370  0.00  0.00     0.012 C 
ATOM      7  C           0     133.831 172.090 139.514  0.00  0.00    -0.024 C 
ATOM      8  C           0     134.270 171.412 138.361  0.00  0.00     0.012 C 
ATOM      9  C           0     135.086 170.329 138.471  0.00  0.00     0.002 C 
ATOM     10  C           0     135.511 169.896 139.717  0.00  0.00     0.016 C 
ATOM     11  C           0     135.101 170.539 140.877  0.00  0.00     0.021 C 
ATOM     12  C           0     135.616 170.089 142.167  0.00  0.00     0.132 C 
ATOM     13  N           0     136.026 168.936 142.644  0.00  0.00    -0.283 N 
ATOM     14  HN          0     136.250 168.113 142.084  1.00  0.00     0.188 HD
ATOM     15  N           0     136.101 169.004 143.938  0.00  0.00    -0.283 N 
ATOM     16  HN          0     136.319 168.222 144.557  1.00  0.00     0.188 HD
ATOM     17  C           0     135.857 170.224 144.327  0.00  0.00     0.132 C 
ATOM     18  N           0     135.900 171.009 143.181  0.00  0.00    -0.325 N 
ATOM     19  HN          0     136.062 171.961 143.098  0.00  0.00     0.169 HD
ATOM     20  C           0     135.498 170.830 145.614  0.00  0.00     0.021 C 
ATOM     21  C           0     135.845 170.236 146.816  0.00  0.00     0.016 C 
ATOM     22  C           0     135.581 170.875 148.021  0.00  0.00     0.002 C 
ATOM     23  C           0     135.022 172.118 148.040  0.00  0.00     0.012 C 
ATOM     24  C           0     134.681 172.754 146.835  0.00  0.00    -0.024 C 
ATOM     25  C           0     134.316 174.111 146.803  0.00  0.00     0.012 C 
ATOM     26  C           0     133.883 174.662 145.634  0.00  0.00     0.002 C 
ATOM     27  C           0     133.741 173.894 144.489  0.00  0.00     0.016 C 
ATOM     28  C           0     134.065 172.533 144.482  0.00  0.00     0.027 C 
ATOM     29  C           0     134.735 172.024 145.618  0.00  0.00     0.002 C 
ATOM     30  C           0     134.168 171.604 140.804  0.00  0.00     0.002 C 
ENDROOT
TORSDOF 0
ENDMDL
