MODEL 1
REMARK VINA RESULT:      -8.2      0.000      0.000
REMARK  1 active torsions:
REMARK  status: ('A' for Active; 'I' for Inactive)
REMARK    1  A    between atoms: N_18  and  N_19 
ROOT
ATOM      1  O           0     112.115 165.129 140.698  0.00  0.00    -0.287 OA
ATOM      2  C           0     110.979 165.318 140.324  0.00  0.00     0.194 C 
ATOM      3  C           0     110.604 164.731 139.040  0.00  0.00     0.027 C 
ATOM      4  C           0     109.889 165.538 138.145  0.00  0.00     0.016 C 
ATOM      5  C           0     109.475 165.074 136.910  0.00  0.00     0.002 C 
ATOM      6  C           0     109.819 163.827 136.489  0.00  0.00     0.012 C 
ATOM      7  C           0     110.609 163.009 137.313  0.00  0.00    -0.024 C 
ATOM      8  C           0     111.114 161.800 136.800  0.00  0.00     0.012 C 
ATOM      9  C           0     111.813 160.953 137.604  0.00  0.00     0.002 C 
ATOM     10  C           0     112.006 161.258 138.943  0.00  0.00     0.016 C 
ATOM     11  C           0     111.524 162.440 139.488  0.00  0.00     0.024 C 
ATOM     12  C           0     111.670 162.716 140.912  0.00  0.00     0.157 C 
ATOM     13  N           0     110.733 163.464 141.625  0.00  0.00    -0.323 N 
ATOM     14  HN          0     109.800 163.627 141.409  0.00  0.00     0.169 HD
ATOM     15  C           0     111.448 163.945 142.700  0.00  0.00     0.134 C 
ATOM     16  N           0     112.478 163.145 142.849  0.00  0.00    -0.262 N 
ATOM     17  HN          0     113.105 163.135 143.655  1.00  0.00     0.191 HD
ATOM     18  N           0     112.577 162.367 141.813  0.00  0.00    -0.184 N 
ATOM     19  C           0     111.098 165.210 143.354  0.00  0.00     0.021 C 
ATOM     20  C           0     111.537 165.516 144.633  0.00  0.00     0.016 C 
ATOM     21  C           0     111.108 166.677 145.264  0.00  0.00     0.002 C 
ATOM     22  C           0     110.214 167.509 144.656  0.00  0.00     0.012 C 
ATOM     23  C           0     109.742 167.214 143.368  0.00  0.00    -0.024 C 
ATOM     24  C           0     108.666 167.918 142.801  0.00  0.00     0.012 C 
ATOM     25  C           0     108.307 167.670 141.510  0.00  0.00     0.002 C 
ATOM     26  C           0     109.023 166.781 140.721  0.00  0.00     0.016 C 
ATOM     27  C           0     110.126 166.090 141.231  0.00  0.00     0.027 C 
ATOM     28  C           0     110.340 166.160 142.629  0.00  0.00     0.002 C 
ATOM     29  C           0     110.911 163.405 138.643  0.00  0.00     0.002 C 
ENDROOT
BRANCH  18  30
ATOM     30  N           0     113.509 161.328 141.697  0.00  0.00    -0.322 N 
ATOM     31  HN1         0     113.430 160.683 140.977  0.00  0.00     0.179 HD
ATOM     32  HN2         0     114.235 161.254 142.338  0.00  0.00     0.179 HD
ENDBRANCH  18  30
TORSDOF 1
ENDMDL
MODEL 2
REMARK VINA RESULT:      -8.1      2.875      7.435
REMARK  1 active torsions:
REMARK  status: ('A' for Active; 'I' for Inactive)
REMARK    1  A    between atoms: N_18  and  N_19 
ROOT
ATOM      1  O           0     111.355 165.628 137.506  0.00  0.00    -0.287 OA
ATOM      2  C           0     111.067 164.563 138.004  0.00  0.00     0.194 C 
ATOM      3  C           0     110.836 164.553 139.447  0.00  0.00     0.027 C 
ATOM      4  C           0     111.424 163.521 140.189  0.00  0.00     0.016 C 
ATOM      5  C           0     111.256 163.414 141.557  0.00  0.00     0.002 C 
ATOM      6  C           0     110.566 164.363 142.246  0.00  0.00     0.012 C 
ATOM      7  C           0     110.028 165.465 141.560  0.00  0.00    -0.024 C 
ATOM      8  C           0     109.478 166.530 142.296  0.00  0.00     0.012 C 
ATOM      9  C           0     108.879 167.570 141.654  0.00  0.00     0.002 C 
ATOM     10  C           0     108.776 167.572 140.271  0.00  0.00     0.016 C 
ATOM     11  C           0     109.305 166.541 139.508  0.00  0.00     0.024 C 
ATOM     12  C           0     109.126 166.519 138.061  0.00  0.00     0.157 C 
ATOM     13  N           0     109.026 165.327 137.342  0.00  0.00    -0.323 N 
ATOM     14  HN          0     108.765 164.449 137.663  0.00  0.00     0.169 HD
ATOM     15  C           0     109.411 165.682 136.067  0.00  0.00     0.134 C 
ATOM     16  N           0     109.230 166.979 135.971  0.00  0.00    -0.262 N 
ATOM     17  HN          0     109.266 167.516 135.105  1.00  0.00     0.191 HD
ATOM     18  N           0     108.998 167.473 137.151  0.00  0.00    -0.184 N 
ATOM     19  C           0     110.036 164.719 135.156  0.00  0.00     0.021 C 
ATOM     20  C           0     110.075 164.930 133.785  0.00  0.00     0.016 C 
ATOM     21  C           0     110.584 163.954 132.939  0.00  0.00     0.002 C 
ATOM     22  C           0     111.010 162.756 133.434  0.00  0.00     0.012 C 
ATOM     23  C           0     110.965 162.511 134.815  0.00  0.00    -0.024 C 
ATOM     24  C           0     111.185 161.226 135.340  0.00  0.00     0.012 C 
ATOM     25  C           0     111.236 161.052 136.691  0.00  0.00     0.002 C 
ATOM     26  C           0     111.138 162.129 137.560  0.00  0.00     0.016 C 
ATOM     27  C           0     110.963 163.430 137.081  0.00  0.00     0.027 C 
ATOM     28  C           0     110.662 163.574 135.705  0.00  0.00     0.002 C 
ATOM     29  C           0     110.055 165.512 140.141  0.00  0.00     0.002 C 
ENDROOT
BRANCH  18  30
ATOM     30  N           0     108.665 168.813 137.390  0.00  0.00    -0.322 N 
ATOM     31  HN1         0     108.887 169.223 138.240  0.00  0.00     0.179 HD
ATOM     32  HN2         0     108.212 169.329 136.705  0.00  0.00     0.179 HD
ENDBRANCH  18  30
TORSDOF 1
ENDMDL
MODEL 3
REMARK VINA RESULT:      -7.9      1.042      5.777
REMARK  1 active torsions:
REMARK  status: ('A' for Active; 'I' for Inactive)
REMARK    1  A    between atoms: N_18  and  N_19 
ROOT
ATOM      1  O           0     109.990 163.506 141.779  0.00  0.00    -0.287 OA
ATOM      2  C           0     110.110 164.595 141.264  0.00  0.00     0.194 C 
ATOM      3  C           0     109.960 165.756 142.139  0.00  0.00     0.027 C 
ATOM      4  C           0     109.171 166.817 141.677  0.00  0.00     0.016 C 
ATOM      5  C           0     108.977 167.965 142.422  0.00  0.00     0.002 C 
ATOM      6  C           0     109.491 168.071 143.677  0.00  0.00     0.012 C 
ATOM      7  C           0     110.218 166.999 144.222  0.00  0.00    -0.024 C 
ATOM      8  C           0     110.588 167.039 145.579  0.00  0.00     0.012 C 
ATOM      9  C           0     111.362 166.052 146.108  0.00  0.00     0.002 C 
ATOM     10  C           0     111.819 165.017 145.307  0.00  0.00     0.016 C 
ATOM     11  C           0     111.477 164.940 143.964  0.00  0.00     0.024 C 
ATOM     12  C           0     112.023 163.887 143.117  0.00  0.00     0.157 C 
ATOM     13  N           0     112.273 164.080 141.758  0.00  0.00    -0.323 N 
ATOM     14  HN          0     112.418 164.915 141.284  0.00  0.00     0.169 HD
ATOM     15  C           0     112.241 162.805 141.235  0.00  0.00     0.134 C 
ATOM     16  N           0     112.476 161.987 142.235  0.00  0.00    -0.262 N 
ATOM     17  HN          0     112.680 160.992 142.146  1.00  0.00     0.191 HD
ATOM     18  N           0     112.409 162.642 143.356  0.00  0.00    -0.184 N 
ATOM     19  C           0     111.847 162.552 139.846  0.00  0.00     0.021 C 
ATOM     20  C           0     112.169 161.368 139.200  0.00  0.00     0.016 C 
ATOM     21  C           0     111.870 161.199 137.855  0.00  0.00     0.002 C 
ATOM     22  C           0     111.297 162.208 137.136  0.00  0.00     0.012 C 
ATOM     23  C           0     110.976 163.422 137.763  0.00  0.00    -0.024 C 
ATOM     24  C           0     110.593 164.551 137.020  0.00  0.00     0.012 C 
ATOM     25  C           0     110.190 165.678 137.673  0.00  0.00     0.002 C 
ATOM     26  C           0     110.089 165.713 139.055  0.00  0.00     0.016 C 
ATOM     27  C           0     110.418 164.598 139.832  0.00  0.00     0.027 C 
ATOM     28  C           0     111.069 163.526 139.175  0.00  0.00     0.002 C 
ATOM     29  C           0     110.560 165.879 143.418  0.00  0.00     0.002 C 
ENDROOT
BRANCH  18  30
ATOM     30  N           0     112.705 162.088 144.608  0.00  0.00    -0.322 N 
ATOM     31  HN1         0     112.573 162.611 145.414  0.00  0.00     0.179 HD
ATOM     32  HN2         0     113.043 161.180 144.669  0.00  0.00     0.179 HD
ENDBRANCH  18  30
TORSDOF 1
ENDMDL
MODEL 4
REMARK VINA RESULT:      -7.9      2.403      6.497
REMARK  1 active torsions:
REMARK  status: ('A' for Active; 'I' for Inactive)
REMARK    1  A    between atoms: N_18  and  N_19 
ROOT
ATOM      1  O           0     111.218 166.809 140.072  0.00  0.00    -0.287 OA
ATOM      2  C           0     110.979 165.623 140.091  0.00  0.00     0.194 C 
ATOM      3  C           0     111.266 164.914 141.336  0.00  0.00     0.027 C 
ATOM      4  C           0     111.930 163.684 141.241  0.00  0.00     0.016 C 
ATOM      5  C           0     112.237 162.928 142.357  0.00  0.00     0.002 C 
ATOM      6  C           0     111.967 163.397 143.605  0.00  0.00     0.012 C 
ATOM      7  C           0     111.380 164.664 143.759  0.00  0.00    -0.024 C 
ATOM      8  C           0     111.273 165.220 145.047  0.00  0.00     0.012 C 
ATOM      9  C           0     110.635 166.408 145.231  0.00  0.00     0.002 C 
ATOM     10  C           0     110.057 167.065 144.155  0.00  0.00     0.016 C 
ATOM     11  C           0     110.140 166.551 142.868  0.00  0.00     0.024 C 
ATOM     12  C           0     109.467 167.213 141.758  0.00  0.00     0.157 C 
ATOM     13  N           0     108.960 166.507 140.667  0.00  0.00    -0.323 N 
ATOM     14  HN          0     108.710 165.570 140.618  0.00  0.00     0.169 HD
ATOM     15  C           0     108.920 167.446 139.659  0.00  0.00     0.134 C 
ATOM     16  N           0     108.897 168.620 140.246  0.00  0.00    -0.262 N 
ATOM     17  HN          0     108.701 169.507 139.780  1.00  0.00     0.191 HD
ATOM     18  N           0     109.160 168.478 141.510  0.00  0.00    -0.184 N 
ATOM     19  C           0     109.050 167.067 138.248  0.00  0.00     0.021 C 
ATOM     20  C           0     108.637 167.909 137.226  0.00  0.00     0.016 C 
ATOM     21  C           0     108.680 167.482 135.905  0.00  0.00     0.002 C 
ATOM     22  C           0     109.084 166.216 135.595  0.00  0.00     0.012 C 
ATOM     23  C           0     109.491 165.340 136.613  0.00  0.00    -0.024 C 
ATOM     24  C           0     109.702 163.973 136.363  0.00  0.00     0.012 C 
ATOM     25  C           0     110.197 163.178 137.354  0.00  0.00     0.002 C 
ATOM     26  C           0     110.557 163.703 138.586  0.00  0.00     0.016 C 
ATOM     27  C           0     110.405 165.065 138.864  0.00  0.00     0.027 C 
ATOM     28  C           0     109.665 165.833 137.932  0.00  0.00     0.002 C 
ATOM     29  C           0     110.916 165.385 142.627  0.00  0.00     0.002 C 
ENDROOT
BRANCH  18  30
ATOM     30  N           0     109.119 169.523 142.443  0.00  0.00    -0.322 N 
ATOM     31  HN1         0     108.601 170.322 142.255  0.00  0.00     0.179 HD
ATOM     32  HN2         0     109.608 169.447 143.278  0.00  0.00     0.179 HD
ENDBRANCH  18  30
TORSDOF 1
ENDMDL
MODEL 5
REMARK VINA RESULT:      -7.8      1.018      1.481
REMARK  1 active torsions:
REMARK  status: ('A' for Active; 'I' for Inactive)
REMARK    1  A    between atoms: N_18  and  N_19 
ROOT
ATOM      1  O           0     111.881 165.512 140.003  0.00  0.00    -0.287 OA
ATOM      2  C           0     110.738 165.885 139.862  0.00  0.00     0.194 C 
ATOM      3  C           0     110.165 165.757 138.524  0.00  0.00     0.027 C 
ATOM      4  C           0     109.447 166.850 138.021  0.00  0.00     0.016 C 
ATOM      5  C           0     108.854 166.825 136.772  0.00  0.00     0.002 C 
ATOM      6  C           0     109.015 165.752 135.951  0.00  0.00     0.012 C 
ATOM      7  C           0     109.798 164.665 136.374  0.00  0.00    -0.024 C 
ATOM      8  C           0     110.112 163.646 135.457  0.00  0.00     0.012 C 
ATOM      9  C           0     110.799 162.544 135.864  0.00  0.00     0.002 C 
ATOM     10  C           0     111.167 162.401 137.193  0.00  0.00     0.016 C 
ATOM     11  C           0     110.878 163.383 138.130  0.00  0.00     0.024 C 
ATOM     12  C           0     111.206 163.189 139.537  0.00  0.00     0.157 C 
ATOM     13  N           0     110.437 163.739 140.563  0.00  0.00    -0.323 N 
ATOM     14  HN          0     109.509 164.024 140.536  0.00  0.00     0.169 HD
ATOM     15  C           0     111.312 163.810 141.625  0.00  0.00     0.134 C 
ATOM     16  N           0     112.261 162.934 141.384  0.00  0.00    -0.262 N 
ATOM     17  HN          0     112.966 162.630 142.056  1.00  0.00     0.191 HD
ATOM     18  N           0     112.162 162.514 140.158  0.00  0.00    -0.184 N 
ATOM     19  C           0     111.173 164.828 142.672  0.00  0.00     0.021 C 
ATOM     20  C           0     111.779 164.687 143.911  0.00  0.00     0.016 C 
ATOM     21  C           0     111.547 165.618 144.915  0.00  0.00     0.002 C 
ATOM     22  C           0     110.687 166.658 144.715  0.00  0.00     0.012 C 
ATOM     23  C           0     110.049 166.814 143.475  0.00  0.00    -0.024 C 
ATOM     24  C           0     109.000 167.732 143.299  0.00  0.00     0.012 C 
ATOM     25  C           0     108.478 167.925 142.055  0.00  0.00     0.002 C 
ATOM     26  C           0     109.004 167.281 140.945  0.00  0.00     0.016 C 
ATOM     27  C           0     110.076 166.392 141.067  0.00  0.00     0.027 C 
ATOM     28  C           0     110.447 166.006 142.378  0.00  0.00     0.002 C 
ATOM     29  C           0     110.284 164.604 137.708  0.00  0.00     0.002 C 
ENDROOT
BRANCH  18  30
ATOM     30  N           0     112.960 161.503 139.608  0.00  0.00    -0.322 N 
ATOM     31  HN1         0     113.569 161.003 140.174  0.00  0.00     0.179 HD
ATOM     32  HN2         0     112.904 161.303 138.660  0.00  0.00     0.179 HD
ENDBRANCH  18  30
TORSDOF 1
ENDMDL
MODEL 6
REMARK VINA RESULT:      -7.8      1.933      4.197
REMARK  1 active torsions:
REMARK  status: ('A' for Active; 'I' for Inactive)
REMARK    1  A    between atoms: N_18  and  N_19 
ROOT
ATOM      1  O           0     109.828 163.731 141.707  0.00  0.00    -0.287 OA
ATOM      2  C           0     110.919 163.275 141.448  0.00  0.00     0.194 C 
ATOM      3  C           0     111.179 162.949 140.047  0.00  0.00     0.027 C 
ATOM      4  C           0     111.790 161.718 139.773  0.00  0.00     0.016 C 
ATOM      5  C           0     112.091 161.321 138.483  0.00  0.00     0.002 C 
ATOM      6  C           0     111.731 162.090 137.420  0.00  0.00     0.012 C 
ATOM      7  C           0     111.040 163.294 137.637  0.00  0.00    -0.024 C 
ATOM      8  C           0     110.510 163.990 136.535  0.00  0.00     0.012 C 
ATOM      9  C           0     109.908 165.197 136.711  0.00  0.00     0.002 C 
ATOM     10  C           0     109.840 165.767 137.974  0.00  0.00     0.016 C 
ATOM     11  C           0     110.350 165.114 139.087  0.00  0.00     0.024 C 
ATOM     12  C           0     110.337 165.755 140.396  0.00  0.00     0.157 C 
ATOM     13  N           0     111.324 165.514 141.352  0.00  0.00    -0.323 N 
ATOM     14  HN          0     112.229 165.187 141.216  0.00  0.00     0.169 HD
ATOM     15  C           0     110.707 165.824 142.545  0.00  0.00     0.134 C 
ATOM     16  N           0     109.712 166.628 142.250  0.00  0.00    -0.262 N 
ATOM     17  HN          0     109.166 167.162 142.927  1.00  0.00     0.191 HD
ATOM     18  N           0     109.528 166.638 140.964  0.00  0.00    -0.184 N 
ATOM     19  C           0     111.095 165.178 143.803  0.00  0.00     0.021 C 
ATOM     20  C           0     110.776 165.730 145.035  0.00  0.00     0.016 C 
ATOM     21  C           0     111.242 165.149 146.206  0.00  0.00     0.002 C 
ATOM     22  C           0     112.058 164.056 146.164  0.00  0.00     0.012 C 
ATOM     23  C           0     112.409 163.488 144.929  0.00  0.00    -0.024 C 
ATOM     24  C           0     113.411 162.508 144.831  0.00  0.00     0.012 C 
ATOM     25  C           0     113.649 161.909 143.630  0.00  0.00     0.002 C 
ATOM     26  C           0     112.877 162.201 142.515  0.00  0.00     0.016 C 
ATOM     27  C           0     111.841 163.137 142.577  0.00  0.00     0.027 C 
ATOM     28  C           0     111.762 163.932 143.747  0.00  0.00     0.002 C 
ATOM     29  C           0     110.860 163.794 138.954  0.00  0.00     0.002 C 
ENDROOT
BRANCH  18  30
ATOM     30  N           0     108.608 167.466 140.308  0.00  0.00    -0.322 N 
ATOM     31  HN1         0     108.080 167.118 139.572  0.00  0.00     0.179 HD
ATOM     32  HN2         0     108.500 168.389 140.589  0.00  0.00     0.179 HD
ENDBRANCH  18  30
TORSDOF 1
ENDMDL
MODEL 7
REMARK VINA RESULT:      -7.7      3.203      5.930
REMARK  1 active torsions:
REMARK  status: ('A' for Active; 'I' for Inactive)
REMARK    1  A    between atoms: N_18  and  N_19 
ROOT
ATOM      1  O           0     108.982 164.021 137.187  0.00  0.00    -0.287 OA
ATOM      2  C           0     110.013 163.591 136.720  0.00  0.00     0.194 C 
ATOM      3  C           0     110.165 163.681 135.269  0.00  0.00     0.027 C 
ATOM      4  C           0     110.650 162.550 134.599  0.00  0.00     0.016 C 
ATOM      5  C           0     110.843 162.537 133.230  0.00  0.00     0.002 C 
ATOM      6  C           0     110.493 163.610 132.471  0.00  0.00     0.012 C 
ATOM      7  C           0     109.923 164.738 133.085  0.00  0.00    -0.024 C 
ATOM      8  C           0     109.396 165.765 132.280  0.00  0.00     0.012 C 
ATOM      9  C           0     108.912 166.902 132.850  0.00  0.00     0.002 C 
ATOM     10  C           0     108.965 167.072 134.225  0.00  0.00     0.016 C 
ATOM     11  C           0     109.476 166.084 135.055  0.00  0.00     0.024 C 
ATOM     12  C           0     109.593 166.304 136.491  0.00  0.00     0.157 C 
ATOM     13  N           0     110.607 165.724 137.253  0.00  0.00    -0.323 N 
ATOM     14  HN          0     111.470 165.393 136.956  0.00  0.00     0.169 HD
ATOM     15  C           0     110.087 165.705 138.529  0.00  0.00     0.134 C 
ATOM     16  N           0     109.150 166.624 138.563  0.00  0.00    -0.262 N 
ATOM     17  HN          0     108.692 166.968 139.407  1.00  0.00     0.191 HD
ATOM     18  N           0     108.897 167.030 137.354  0.00  0.00    -0.184 N 
ATOM     19  C           0     110.486 164.689 139.508  0.00  0.00     0.021 C 
ATOM     20  C           0     110.285 164.868 140.868  0.00  0.00     0.016 C 
ATOM     21  C           0     110.764 163.934 141.777  0.00  0.00     0.002 C 
ATOM     22  C           0     111.477 162.851 141.352  0.00  0.00     0.012 C 
ATOM     23  C           0     111.708 162.655 139.982  0.00  0.00    -0.024 C 
ATOM     24  C           0     112.613 161.684 139.522  0.00  0.00     0.012 C 
ATOM     25  C           0     112.730 161.456 138.183  0.00  0.00     0.002 C 
ATOM     26  C           0     111.926 162.118 137.267  0.00  0.00     0.016 C 
ATOM     27  C           0     110.981 163.061 137.683  0.00  0.00     0.027 C 
ATOM     28  C           0     111.037 163.473 139.036  0.00  0.00     0.002 C 
ATOM     29  C           0     109.861 164.833 134.501  0.00  0.00     0.002 C 
ENDROOT
BRANCH  18  30
ATOM     30  N           0     108.018 168.076 137.045  0.00  0.00    -0.322 N 
ATOM     31  HN1         0     107.785 168.731 137.722  0.00  0.00     0.179 HD
ATOM     32  HN2         0     107.642 168.145 136.153  0.00  0.00     0.179 HD
ENDBRANCH  18  30
TORSDOF 1
ENDMDL
MODEL 8
REMARK VINA RESULT:      -7.6      2.924      4.981
REMARK  1 active torsions:
REMARK  status: ('A' for Active; 'I' for Inactive)
REMARK    1  A    between atoms: N_18  and  N_19 
ROOT
ATOM      1  O           0     111.827 164.899 137.449  0.00  0.00    -0.287 OA
ATOM      2  C           0     110.851 165.338 138.015  0.00  0.00     0.194 C 
ATOM      3  C           0     109.988 166.229 137.242  0.00  0.00     0.027 C 
ATOM      4  C           0     109.546 167.403 137.865  0.00  0.00     0.016 C 
ATOM      5  C           0     108.716 168.305 137.224  0.00  0.00     0.002 C 
ATOM      6  C           0     108.359 168.115 135.926  0.00  0.00     0.012 C 
ATOM      7  C           0     108.845 166.996 135.228  0.00  0.00    -0.024 C 
ATOM      8  C           0     108.624 166.902 133.842  0.00  0.00     0.012 C 
ATOM      9  C           0     109.013 165.790 133.160  0.00  0.00     0.002 C 
ATOM     10  C           0     109.602 164.729 133.830  0.00  0.00     0.016 C 
ATOM     11  C           0     109.837 164.781 135.197  0.00  0.00     0.024 C 
ATOM     12  C           0     110.389 163.631 135.902  0.00  0.00     0.157 C 
ATOM     13  N           0     110.069 163.348 137.230  0.00  0.00    -0.323 N 
ATOM     14  HN          0     109.290 163.631 137.736  0.00  0.00     0.169 HD
ATOM     15  C           0     111.134 162.591 137.669  0.00  0.00     0.134 C 
ATOM     16  N           0     111.693 162.079 136.597  0.00  0.00    -0.262 N 
ATOM     17  HN          0     112.401 161.344 136.596  1.00  0.00     0.191 HD
ATOM     18  N           0     111.206 162.653 135.537  0.00  0.00    -0.184 N 
ATOM     19  C           0     111.544 162.583 139.076  0.00  0.00     0.021 C 
ATOM     20  C           0     112.333 161.569 139.600  0.00  0.00     0.016 C 
ATOM     21  C           0     112.622 161.536 140.958  0.00  0.00     0.002 C 
ATOM     22  C           0     112.099 162.469 141.805  0.00  0.00     0.012 C 
ATOM     23  C           0     111.284 163.495 141.302  0.00  0.00    -0.024 C 
ATOM     24  C           0     110.554 164.338 142.157  0.00  0.00     0.012 C 
ATOM     25  C           0     109.857 165.386 141.633  0.00  0.00     0.002 C 
ATOM     26  C           0     109.906 165.677 140.278  0.00  0.00     0.016 C 
ATOM     27  C           0     110.655 164.892 139.396  0.00  0.00     0.027 C 
ATOM     28  C           0     111.166 163.671 139.899  0.00  0.00     0.002 C 
ATOM     29  C           0     109.567 165.981 135.910  0.00  0.00     0.002 C 
ENDROOT
BRANCH  18  30
ATOM     30  N           0     111.516 162.273 134.225  0.00  0.00    -0.322 N 
ATOM     31  HN1         0     110.888 162.449 133.507  0.00  0.00     0.179 HD
ATOM     32  HN2         0     112.360 161.832 134.035  0.00  0.00     0.179 HD
ENDBRANCH  18  30
TORSDOF 1
ENDMDL
MODEL 9
REMARK VINA RESULT:      -7.5      1.484      3.006
REMARK  1 active torsions:
REMARK  status: ('A' for Active; 'I' for Inactive)
REMARK    1  A    between atoms: N_18  and  N_19 
ROOT
ATOM      1  O           0     112.546 164.575 140.701  0.00  0.00    -0.287 OA
ATOM      2  C           0     111.534 165.123 141.078  0.00  0.00     0.194 C 
ATOM      3  C           0     110.668 165.687 140.045  0.00  0.00     0.027 C 
ATOM      4  C           0     110.161 166.975 140.259  0.00  0.00     0.016 C 
ATOM      5  C           0     109.322 167.593 139.351  0.00  0.00     0.002 C 
ATOM      6  C           0     109.020 166.992 138.168  0.00  0.00     0.012 C 
ATOM      7  C           0     109.571 165.736 137.867  0.00  0.00    -0.024 C 
ATOM      8  C           0     109.405 165.204 136.575  0.00  0.00     0.012 C 
ATOM      9  C           0     109.860 163.955 136.283  0.00  0.00     0.002 C 
ATOM     10  C           0     110.462 163.183 137.266  0.00  0.00     0.016 C 
ATOM     11  C           0     110.646 163.670 138.552  0.00  0.00     0.024 C 
ATOM     12  C           0     111.213 162.823 139.594  0.00  0.00     0.157 C 
ATOM     13  N           0     110.856 162.953 140.936  0.00  0.00    -0.323 N 
ATOM     14  HN          0     110.049 163.343 141.310  0.00  0.00     0.169 HD
ATOM     15  C           0     111.931 162.420 141.614  0.00  0.00     0.134 C 
ATOM     16  N           0     112.547 161.627 140.769  0.00  0.00    -0.262 N 
ATOM     17  HN          0     113.281 160.962 141.014  1.00  0.00     0.191 HD
ATOM     18  N           0     112.078 161.819 139.573  0.00  0.00    -0.184 N 
ATOM     19  C           0     112.289 162.869 142.963  0.00  0.00     0.021 C 
ATOM     20  C           0     113.096 162.107 143.796  0.00  0.00     0.016 C 
ATOM     21  C           0     113.336 162.511 145.102  0.00  0.00     0.002 C 
ATOM     22  C           0     112.748 163.637 145.602  0.00  0.00     0.012 C 
ATOM     23  C           0     111.914 164.416 144.785  0.00  0.00    -0.024 C 
ATOM     24  C           0     111.123 165.448 145.317  0.00  0.00     0.012 C 
ATOM     25  C           0     110.408 166.248 144.476  0.00  0.00     0.002 C 
ATOM     26  C           0     110.495 166.105 143.099  0.00  0.00     0.016 C 
ATOM     27  C           0     111.304 165.120 142.525  0.00  0.00     0.027 C 
ATOM     28  C           0     111.842 164.141 143.395  0.00  0.00     0.002 C 
ATOM     29  C           0     110.305 165.018 138.848  0.00  0.00     0.002 C 
ENDROOT
BRANCH  18  30
ATOM     30  N           0     112.450 161.064 138.452  0.00  0.00    -0.322 N 
ATOM     31  HN1         0     112.672 161.509 137.619  0.00  0.00     0.179 HD
ATOM     32  HN2         0     112.485 160.096 138.510  0.00  0.00     0.179 HD
ENDBRANCH  18  30
TORSDOF 1
ENDMDL
