MODEL 1
REMARK VINA RESULT:      -8.1      0.000      0.000
REMARK  1 active torsions:
REMARK  status: ('A' for Active; 'I' for Inactive)
REMARK    1  A    between atoms: N_18  and  O_19 
ROOT
ATOM      1  O           0     110.591 176.097 140.732  0.00  0.00    -0.287 OA
ATOM      2  C           0     110.935 174.965 140.979  0.00  0.00     0.194 C 
ATOM      3  C           0     111.395 174.692 142.339  0.00  0.00     0.027 A 
ATOM      4  C           0     110.847 173.588 143.000  0.00  0.00     0.016 A 
ATOM      5  C           0     111.232 173.231 144.280  0.00  0.00     0.002 A 
ATOM      6  C           0     112.133 173.984 144.967  0.00  0.00     0.012 A 
ATOM      7  C           0     112.669 175.142 144.375  0.00  0.00    -0.024 A 
ATOM      8  C           0     113.504 175.976 145.140  0.00  0.00     0.012 A 
ATOM      9  C           0     114.074 177.079 144.581  0.00  0.00     0.002 A 
ATOM     10  C           0     113.853 177.376 143.245  0.00  0.00     0.016 A 
ATOM     11  C           0     113.042 176.574 142.455  0.00  0.00     0.024 A 
ATOM     12  C           0     112.867 176.895 141.041  0.00  0.00     0.161 C 
ATOM     13  N           0     112.778 178.008 140.351  0.00  0.00    -0.281 N 
ATOM     14  HN          0     113.035 178.934 140.692  1.00  0.00     0.188 HD
ATOM     15  N           0     112.312 177.746 139.169  0.00  0.00    -0.281 N 
ATOM     16  HN          0     112.062 178.444 138.469  1.00  0.00     0.188 HD
ATOM     17  C           0     112.212 176.458 139.013  0.00  0.00     0.161 C 
ATOM     18  N           0     112.897 175.884 140.076  0.00  0.00    -0.185 N 
ATOM     19  C           0     111.485 175.610 138.059  0.00  0.00     0.024 C 
ATOM     20  C           0     111.265 176.017 136.754  0.00  0.00     0.016 C 
ATOM     21  C           0     110.647 175.172 135.842  0.00  0.00     0.002 C 
ATOM     22  C           0     110.290 173.907 136.204  0.00  0.00     0.012 C 
ATOM     23  C           0     110.521 173.458 137.514  0.00  0.00    -0.024 C 
ATOM     24  C           0     110.360 172.104 137.855  0.00  0.00     0.012 C 
ATOM     25  C           0     110.486 171.719 139.156  0.00  0.00     0.002 C 
ATOM     26  C           0     110.718 172.647 140.158  0.00  0.00     0.016 C 
ATOM     27  C           0     110.860 174.009 139.871  0.00  0.00     0.027 C 
ATOM     28  C           0     110.953 174.377 138.507  0.00  0.00     0.002 C 
ATOM     29  C           0     112.362 175.470 143.029  0.00  0.00     0.002 A 
ENDROOT
BRANCH  18  30
ATOM     30  O           0     113.515 174.612 140.155  0.00  0.00    -0.275 OA
ATOM     31  C           0     114.820 174.751 139.589  0.00  0.00     0.238 C 
ENDBRANCH  18  30
TORSDOF 1
ENDMDL
MODEL 2
REMARK VINA RESULT:      -7.3      9.950     13.772
REMARK  1 active torsions:
REMARK  status: ('A' for Active; 'I' for Inactive)
REMARK    1  A    between atoms: N_18  and  O_19 
ROOT
ATOM      1  O           0     109.819 162.449 137.112  0.00  0.00    -0.287 OA
ATOM      2  C           0     110.096 163.543 136.680  0.00  0.00     0.194 C 
ATOM      3  C           0     110.289 163.657 135.235  0.00  0.00     0.027 A 
ATOM      4  C           0     109.614 164.685 134.570  0.00  0.00     0.016 A 
ATOM      5  C           0     109.747 164.892 133.209  0.00  0.00     0.002 A 
ATOM      6  C           0     110.511 164.059 132.453  0.00  0.00     0.012 A 
ATOM      7  C           0     111.163 162.970 133.059  0.00  0.00    -0.024 A 
ATOM      8  C           0     111.849 162.046 132.250  0.00  0.00     0.012 A 
ATOM      9  C           0     112.526 161.008 132.811  0.00  0.00     0.002 A 
ATOM     10  C           0     112.564 160.864 134.189  0.00  0.00     0.016 A 
ATOM     11  C           0     111.906 161.757 135.023  0.00  0.00     0.024 A 
ATOM     12  C           0     112.005 161.599 136.471  0.00  0.00     0.161 C 
ATOM     13  N           0     112.060 160.572 137.286  0.00  0.00    -0.281 N 
ATOM     14  HN          0     112.259 159.610 137.009  1.00  0.00     0.188 HD
ATOM     15  N           0     111.822 160.968 138.498  0.00  0.00    -0.281 N 
ATOM     16  HN          0     111.716 160.356 139.306  1.00  0.00     0.188 HD
ATOM     17  C           0     111.738 162.267 138.525  0.00  0.00     0.161 C 
ATOM     18  N           0     112.203 162.711 137.295  0.00  0.00    -0.185 N 
ATOM     19  C           0     111.194 163.224 139.497  0.00  0.00     0.024 C 
ATOM     20  C           0     111.228 162.967 140.858  0.00  0.00     0.016 C 
ATOM     21  C           0     110.783 163.916 141.769  0.00  0.00     0.002 C 
ATOM     22  C           0     110.349 165.136 141.342  0.00  0.00     0.012 C 
ATOM     23  C           0     110.325 165.432 139.969  0.00  0.00    -0.024 C 
ATOM     24  C           0     110.086 166.742 139.515  0.00  0.00     0.012 C 
ATOM     25  C           0     109.961 166.977 138.180  0.00  0.00     0.002 C 
ATOM     26  C           0     110.010 165.940 137.262  0.00  0.00     0.016 C 
ATOM     27  C           0     110.221 164.618 137.668  0.00  0.00     0.027 C 
ATOM     28  C           0     110.572 164.404 139.022  0.00  0.00     0.002 C 
ATOM     29  C           0     111.118 162.797 134.468  0.00  0.00     0.002 A 
ENDROOT
BRANCH  18  30
ATOM     30  O           0     112.781 163.961 136.959  0.00  0.00    -0.275 OA
ATOM     31  C           0     114.182 163.853 137.223  0.00  0.00     0.238 C 
ENDBRANCH  18  30
TORSDOF 1
ENDMDL
MODEL 3
REMARK VINA RESULT:      -7.2      9.792     11.650
REMARK  1 active torsions:
REMARK  status: ('A' for Active; 'I' for Inactive)
REMARK    1  A    between atoms: N_18  and  O_19 
ROOT
ATOM      1  O           0     108.798 164.093 136.933  0.00  0.00    -0.287 OA
ATOM      2  C           0     109.842 163.608 136.566  0.00  0.00     0.194 C 
ATOM      3  C           0     110.650 162.928 137.577  0.00  0.00     0.027 A 
ATOM      4  C           0     111.122 161.647 137.275  0.00  0.00     0.016 A 
ATOM      5  C           0     111.913 160.928 138.153  0.00  0.00     0.002 A 
ATOM      6  C           0     112.222 161.433 139.378  0.00  0.00     0.012 A 
ATOM      7  C           0     111.721 162.691 139.760  0.00  0.00    -0.024 A 
ATOM      8  C           0     111.945 163.146 141.072  0.00  0.00     0.012 A 
ATOM      9  C           0     111.513 164.378 141.456  0.00  0.00     0.002 A 
ATOM     10  C           0     110.866 165.204 140.549  0.00  0.00     0.016 A 
ATOM     11  C           0     110.633 164.795 139.244  0.00  0.00     0.024 A 
ATOM     12  C           0     109.988 165.709 138.306  0.00  0.00     0.161 C 
ATOM     13  N           0     109.044 166.616 138.401  0.00  0.00    -0.281 N 
ATOM     14  HN          0     108.697 167.015 139.273  1.00  0.00     0.188 HD
ATOM     15  N           0     108.620 166.924 137.214  0.00  0.00    -0.281 N 
ATOM     16  HN          0     107.830 167.536 137.014  1.00  0.00     0.188 HD
ATOM     17  C           0     109.359 166.334 136.319  0.00  0.00     0.161 C 
ATOM     18  N           0     110.461 165.831 136.996  0.00  0.00    -0.185 N 
ATOM     19  C           0     109.181 166.056 134.888  0.00  0.00     0.024 C 
ATOM     20  C           0     108.469 166.917 134.068  0.00  0.00     0.016 C 
ATOM     21  C           0     108.378 166.681 132.703  0.00  0.00     0.002 C 
ATOM     22  C           0     109.027 165.624 132.138  0.00  0.00     0.012 C 
ATOM     23  C           0     109.775 164.747 132.941  0.00  0.00    -0.024 C 
ATOM     24  C           0     110.620 163.782 132.366  0.00  0.00     0.012 C 
ATOM     25  C           0     111.247 162.876 133.167  0.00  0.00     0.002 C 
ATOM     26  C           0     111.025 162.855 134.535  0.00  0.00     0.016 C 
ATOM     27  C           0     110.173 163.779 135.149  0.00  0.00     0.027 C 
ATOM     28  C           0     109.701 164.852 134.355  0.00  0.00     0.002 C 
ATOM     29  C           0     110.991 163.485 138.837  0.00  0.00     0.002 A 
ENDROOT
BRANCH  18  30
ATOM     30  O           0     111.759 165.552 136.501  0.00  0.00    -0.275 OA
ATOM     31  C           0     112.501 166.772 136.577  0.00  0.00     0.238 C 
ENDBRANCH  18  30
TORSDOF 1
ENDMDL
MODEL 4
REMARK VINA RESULT:      -7.2      9.268     12.698
REMARK  1 active torsions:
REMARK  status: ('A' for Active; 'I' for Inactive)
REMARK    1  A    between atoms: N_18  and  O_19 
ROOT
ATOM      1  O           0     110.115 163.205 141.929  0.00  0.00    -0.287 OA
ATOM      2  C           0     110.456 164.265 141.458  0.00  0.00     0.194 C 
ATOM      3  C           0     110.629 164.322 140.008  0.00  0.00     0.027 A 
ATOM      4  C           0     110.011 165.373 139.322  0.00  0.00     0.016 A 
ATOM      5  C           0     110.132 165.530 137.953  0.00  0.00     0.002 A 
ATOM      6  C           0     110.825 164.624 137.211  0.00  0.00     0.012 A 
ATOM      7  C           0     111.414 163.513 137.840  0.00  0.00    -0.024 A 
ATOM      8  C           0     112.021 162.522 137.048  0.00  0.00     0.012 A 
ATOM      9  C           0     112.638 161.458 137.630  0.00  0.00     0.002 A 
ATOM     10  C           0     112.693 161.353 139.011  0.00  0.00     0.016 A 
ATOM     11  C           0     112.112 162.313 139.828  0.00  0.00     0.024 A 
ATOM     12  C           0     112.227 162.191 141.278  0.00  0.00     0.161 C 
ATOM     13  N           0     112.229 161.188 142.124  0.00  0.00    -0.281 N 
ATOM     14  HN          0     112.358 160.208 141.874  1.00  0.00     0.188 HD
ATOM     15  N           0     112.041 161.636 143.326  0.00  0.00    -0.281 N 
ATOM     16  HN          0     111.910 161.056 144.155  1.00  0.00     0.188 HD
ATOM     17  C           0     112.044 162.938 143.314  0.00  0.00     0.161 C 
ATOM     18  N           0     112.515 163.313 142.063  0.00  0.00    -0.185 N 
ATOM     19  C           0     111.583 163.957 144.265  0.00  0.00     0.024 C 
ATOM     20  C           0     111.626 163.740 145.633  0.00  0.00     0.016 C 
ATOM     21  C           0     111.262 164.744 146.521  0.00  0.00     0.002 C 
ATOM     22  C           0     110.902 165.976 146.063  0.00  0.00     0.012 C 
ATOM     23  C           0     110.872 166.232 144.683  0.00  0.00    -0.024 C 
ATOM     24  C           0     110.713 167.540 144.193  0.00  0.00     0.012 C 
ATOM     25  C           0     110.578 167.743 142.852  0.00  0.00     0.002 C 
ATOM     26  C           0     110.541 166.678 141.967  0.00  0.00     0.016 C 
ATOM     27  C           0     110.670 165.358 142.410  0.00  0.00     0.027 C 
ATOM     28  C           0     111.032 165.162 143.765  0.00  0.00     0.002 C 
ATOM     29  C           0     111.384 163.386 139.253  0.00  0.00     0.002 A 
ENDROOT
BRANCH  18  30
ATOM     30  O           0     113.167 164.510 141.679  0.00  0.00    -0.275 OA
ATOM     31  C           0     114.562 164.320 141.932  0.00  0.00     0.238 C 
ENDBRANCH  18  30
TORSDOF 1
ENDMDL
MODEL 5
REMARK VINA RESULT:      -7.1      9.044     10.791
REMARK  1 active torsions:
REMARK  status: ('A' for Active; 'I' for Inactive)
REMARK    1  A    between atoms: N_18  and  O_19 
ROOT
ATOM      1  O           0     109.645 164.114 141.534  0.00  0.00    -0.287 OA
ATOM      2  C           0     110.733 163.592 141.578  0.00  0.00     0.194 C 
ATOM      3  C           0     111.381 163.518 142.887  0.00  0.00     0.027 A 
ATOM      4  C           0     111.897 162.281 143.287  0.00  0.00     0.016 A 
ATOM      5  C           0     112.548 162.112 144.495  0.00  0.00     0.002 A 
ATOM      6  C           0     112.666 163.147 145.369  0.00  0.00     0.012 A 
ATOM      7  C           0     112.111 164.398 145.046  0.00  0.00    -0.024 A 
ATOM      8  C           0     112.132 165.424 146.008  0.00  0.00     0.012 A 
ATOM      9  C           0     111.643 166.659 145.709  0.00  0.00     0.002 A 
ATOM     10  C           0     111.139 166.921 144.445  0.00  0.00     0.016 A 
ATOM     11  C           0     111.107 165.938 143.466  0.00  0.00     0.024 A 
ATOM     12  C           0     110.609 166.264 142.132  0.00  0.00     0.161 C 
ATOM     13  N           0     109.659 167.040 141.665  0.00  0.00    -0.281 N 
ATOM     14  HN          0     109.183 167.771 142.194  1.00  0.00     0.188 HD
ATOM     15  N           0     109.419 166.731 140.429  0.00  0.00    -0.281 N 
ATOM     16  HN          0     108.666 167.121 139.862  1.00  0.00     0.188 HD
ATOM     17  C           0     110.285 165.850 140.021  0.00  0.00     0.161 C 
ATOM     18  N           0     111.274 165.800 140.994  0.00  0.00    -0.185 N 
ATOM     19  C           0     110.326 164.928 138.878  0.00  0.00     0.024 C 
ATOM     20  C           0     109.745 165.257 137.665  0.00  0.00     0.016 C 
ATOM     21  C           0     109.862 164.410 136.570  0.00  0.00     0.002 C 
ATOM     22  C           0     110.592 163.262 136.659  0.00  0.00     0.012 C 
ATOM     23  C           0     111.212 162.914 137.869  0.00  0.00    -0.024 C 
ATOM     24  C           0     112.137 161.858 137.932  0.00  0.00     0.012 C 
ATOM     25  C           0     112.638 161.474 139.139  0.00  0.00     0.002 C 
ATOM     26  C           0     112.211 162.072 140.314  0.00  0.00     0.016 C 
ATOM     27  C           0     111.274 163.111 140.304  0.00  0.00     0.027 C 
ATOM     28  C           0     110.925 163.656 139.046  0.00  0.00     0.002 C 
ATOM     29  C           0     111.526 164.619 143.772  0.00  0.00     0.002 A 
ENDROOT
BRANCH  18  30
ATOM     30  O           0     112.633 165.419 140.864  0.00  0.00    -0.275 OA
ATOM     31  C           0     113.353 166.589 140.468  0.00  0.00     0.238 C 
ENDBRANCH  18  30
TORSDOF 1
ENDMDL
MODEL 6
REMARK VINA RESULT:      -7.1      9.108     12.317
REMARK  1 active torsions:
REMARK  status: ('A' for Active; 'I' for Inactive)
REMARK    1  A    between atoms: N_18  and  O_19 
ROOT
ATOM      1  O           0     109.909 163.481 141.888  0.00  0.00    -0.287 OA
ATOM      2  C           0     110.202 164.652 141.952  0.00  0.00     0.194 C 
ATOM      3  C           0     109.903 165.475 140.781  0.00  0.00     0.027 A 
ATOM      4  C           0     109.225 166.680 140.992  0.00  0.00     0.016 A 
ATOM      5  C           0     108.915 167.541 139.955  0.00  0.00     0.002 A 
ATOM      6  C           0     109.221 167.215 138.670  0.00  0.00     0.012 A 
ATOM      7  C           0     109.847 165.987 138.393  0.00  0.00    -0.024 A 
ATOM      8  C           0     110.046 165.608 137.053  0.00  0.00     0.012 A 
ATOM      9  C           0     110.690 164.447 136.754  0.00  0.00     0.002 A 
ATOM     10  C           0     111.173 163.636 137.769  0.00  0.00     0.016 A 
ATOM     11  C           0     111.004 163.978 139.104  0.00  0.00     0.024 A 
ATOM     12  C           0     111.565 163.121 140.144  0.00  0.00     0.161 C 
ATOM     13  N           0     111.722 161.827 140.290  0.00  0.00    -0.281 N 
ATOM     14  HN          0     111.648 161.137 139.543  1.00  0.00     0.188 HD
ATOM     15  N           0     111.985 161.561 141.532  0.00  0.00    -0.281 N 
ATOM     16  HN          0     112.062 160.624 141.929  1.00  0.00     0.188 HD
ATOM     17  C           0     112.137 162.671 142.195  0.00  0.00     0.161 C 
ATOM     18  N           0     112.219 163.681 141.246  0.00  0.00    -0.185 N 
ATOM     19  C           0     112.130 163.001 143.626  0.00  0.00     0.024 C 
ATOM     20  C           0     112.585 162.102 144.576  0.00  0.00     0.016 C 
ATOM     21  C           0     112.647 162.459 145.917  0.00  0.00     0.002 C 
ATOM     22  C           0     112.305 163.717 146.315  0.00  0.00     0.012 C 
ATOM     23  C           0     111.862 164.657 145.371  0.00  0.00    -0.024 C 
ATOM     24  C           0     111.707 166.011 145.714  0.00  0.00     0.012 C 
ATOM     25  C           0     111.173 166.877 144.809  0.00  0.00     0.002 C 
ATOM     26  C           0     110.728 166.437 143.573  0.00  0.00     0.016 C 
ATOM     27  C           0     110.838 165.095 143.196  0.00  0.00     0.027 C 
ATOM     28  C           0     111.592 164.244 144.039  0.00  0.00     0.002 C 
ATOM     29  C           0     110.260 165.135 139.450  0.00  0.00     0.002 A 
ENDROOT
BRANCH  18  30
ATOM     30  O           0     112.849 164.947 141.345  0.00  0.00    -0.275 OA
ATOM     31  C           0     114.223 164.753 141.002  0.00  0.00     0.238 C 
ENDBRANCH  18  30
TORSDOF 1
ENDMDL
MODEL 7
REMARK VINA RESULT:      -7.1      2.563      3.997
REMARK  1 active torsions:
REMARK  status: ('A' for Active; 'I' for Inactive)
REMARK    1  A    between atoms: N_18  and  O_19 
ROOT
ATOM      1  O           0     110.090 175.188 136.759  0.00  0.00    -0.287 OA
ATOM      2  C           0     110.502 174.144 137.204  0.00  0.00     0.194 C 
ATOM      3  C           0     111.015 174.162 138.573  0.00  0.00     0.027 A 
ATOM      4  C           0     110.548 173.181 139.454  0.00  0.00     0.016 A 
ATOM      5  C           0     110.988 173.098 140.762  0.00  0.00     0.002 A 
ATOM      6  C           0     111.865 174.012 141.257  0.00  0.00     0.012 A 
ATOM      7  C           0     112.319 175.058 140.435  0.00  0.00    -0.024 A 
ATOM      8  C           0     113.128 176.065 140.993  0.00  0.00     0.012 A 
ATOM      9  C           0     113.620 177.065 140.212  0.00  0.00     0.002 A 
ATOM     10  C           0     113.345 177.088 138.853  0.00  0.00     0.016 A 
ATOM     11  C           0     112.557 176.109 138.263  0.00  0.00     0.024 A 
ATOM     12  C           0     112.326 176.142 136.822  0.00  0.00     0.161 C 
ATOM     13  N           0     112.156 177.094 135.935  0.00  0.00    -0.281 N 
ATOM     14  HN          0     112.370 178.081 136.082  1.00  0.00     0.188 HD
ATOM     15  N           0     111.672 176.587 134.844  0.00  0.00    -0.281 N 
ATOM     16  HN          0     111.364 177.123 134.033  1.00  0.00     0.188 HD
ATOM     17  C           0     111.639 175.289 134.941  0.00  0.00     0.161 C 
ATOM     18  N           0     112.384 174.966 136.067  0.00  0.00    -0.185 N 
ATOM     19  C           0     110.934 174.238 134.196  0.00  0.00     0.024 C 
ATOM     20  C           0     110.655 174.374 132.846  0.00  0.00     0.016 C 
ATOM     21  C           0     110.059 173.339 132.138  0.00  0.00     0.002 C 
ATOM     22  C           0     109.782 172.152 132.749  0.00  0.00     0.012 C 
ATOM     23  C           0     110.076 171.977 134.111  0.00  0.00    -0.024 C 
ATOM     24  C           0     109.999 170.708 134.711  0.00  0.00     0.012 C 
ATOM     25  C           0     110.183 170.589 136.055  0.00  0.00     0.002 C 
ATOM     26  C           0     110.391 171.704 136.852  0.00  0.00     0.016 C 
ATOM     27  C           0     110.450 172.989 136.304  0.00  0.00     0.027 C 
ATOM     28  C           0     110.483 173.090 134.892  0.00  0.00     0.002 C 
ATOM     29  C           0     111.957 175.105 139.063  0.00  0.00     0.002 A 
ENDROOT
BRANCH  18  30
ATOM     30  O           0     113.074 173.765 136.365  0.00  0.00    -0.275 OA
ATOM     31  C           0     114.387 173.895 135.815  0.00  0.00     0.238 C 
ENDBRANCH  18  30
TORSDOF 1
ENDMDL
MODEL 8
REMARK VINA RESULT:      -7.0      1.636      2.247
REMARK  1 active torsions:
REMARK  status: ('A' for Active; 'I' for Inactive)
REMARK    1  A    between atoms: N_18  and  O_19 
ROOT
ATOM      1  O           0     111.063 175.776 139.266  0.00  0.00    -0.287 OA
ATOM      2  C           0     111.157 174.581 139.119  0.00  0.00     0.194 C 
ATOM      3  C           0     111.437 173.785 140.314  0.00  0.00     0.027 A 
ATOM      4  C           0     110.631 172.668 140.552  0.00  0.00     0.016 A 
ATOM      5  C           0     110.827 171.838 141.641  0.00  0.00     0.002 A 
ATOM      6  C           0     111.795 172.114 142.556  0.00  0.00     0.012 A 
ATOM      7  C           0     112.594 173.261 142.400  0.00  0.00    -0.024 A 
ATOM      8  C           0     113.506 173.601 143.416  0.00  0.00     0.012 A 
ATOM      9  C           0     114.325 174.679 143.273  0.00  0.00     0.002 A 
ATOM     10  C           0     114.282 175.438 142.114  0.00  0.00     0.016 A 
ATOM     11  C           0     113.402 175.131 141.086  0.00  0.00     0.024 A 
ATOM     12  C           0     113.415 175.928 139.863  0.00  0.00     0.161 C 
ATOM     13  N           0     113.603 177.197 139.589  0.00  0.00    -0.281 N 
ATOM     14  HN          0     114.004 177.884 140.228  1.00  0.00     0.188 HD
ATOM     15  N           0     113.199 177.444 138.382  0.00  0.00    -0.281 N 
ATOM     16  HN          0     113.151 178.369 137.956  1.00  0.00     0.188 HD
ATOM     17  C           0     112.865 176.330 137.796  0.00  0.00     0.161 C 
ATOM     18  N           0     113.331 175.308 138.612  0.00  0.00    -0.185 N 
ATOM     19  C           0     112.072 176.017 136.600  0.00  0.00     0.024 C 
ATOM     20  C           0     112.048 176.867 135.507  0.00  0.00     0.016 C 
ATOM     21  C           0     111.359 176.519 134.353  0.00  0.00     0.002 C 
ATOM     22  C           0     110.732 175.312 134.259  0.00  0.00     0.012 C 
ATOM     23  C           0     110.759 174.419 135.343  0.00  0.00    -0.024 C 
ATOM     24  C           0     110.310 173.095 135.202  0.00  0.00     0.012 C 
ATOM     25  C           0     110.246 172.287 136.296  0.00  0.00     0.002 C 
ATOM     26  C           0     110.566 172.763 137.558  0.00  0.00     0.016 C 
ATOM     27  C           0     110.995 174.080 137.751  0.00  0.00     0.027 C 
ATOM     28  C           0     111.274 174.847 136.595  0.00  0.00     0.002 C 
ATOM     29  C           0     112.474 174.070 141.241  0.00  0.00     0.002 A 
ENDROOT
BRANCH  18  30
ATOM     30  O           0     113.681 173.980 138.264  0.00  0.00    -0.275 OA
ATOM     31  C           0     115.047 174.010 137.845  0.00  0.00     0.238 C 
ENDBRANCH  18  30
TORSDOF 1
ENDMDL
MODEL 9
REMARK VINA RESULT:      -7.0      2.050      6.761
REMARK  1 active torsions:
REMARK  status: ('A' for Active; 'I' for Inactive)
REMARK    1  A    between atoms: N_18  and  O_19 
ROOT
ATOM      1  O           0     110.302 174.838 138.708  0.00  0.00    -0.287 OA
ATOM      2  C           0     111.359 175.382 138.492  0.00  0.00     0.194 C 
ATOM      3  C           0     111.805 175.438 137.101  0.00  0.00     0.027 A 
ATOM      4  C           0     112.225 176.676 136.604  0.00  0.00     0.016 A 
ATOM      5  C           0     112.687 176.830 135.309  0.00  0.00     0.002 A 
ATOM      6  C           0     112.700 175.777 134.449  0.00  0.00     0.012 A 
ATOM      7  C           0     112.229 174.522 134.876  0.00  0.00    -0.024 A 
ATOM      8  C           0     112.134 173.474 133.943  0.00  0.00     0.012 A 
ATOM      9  C           0     111.725 172.237 134.336  0.00  0.00     0.002 A 
ATOM     10  C           0     111.420 171.994 135.666  0.00  0.00     0.016 A 
ATOM     11  C           0     111.508 172.999 136.619  0.00  0.00     0.024 A 
ATOM     12  C           0     111.221 172.695 138.018  0.00  0.00     0.161 C 
ATOM     13  N           0     110.369 171.911 138.636  0.00  0.00    -0.281 N 
ATOM     14  HN          0     109.839 171.157 138.199  1.00  0.00     0.188 HD
ATOM     15  N           0     110.307 172.244 139.888  0.00  0.00    -0.281 N 
ATOM     16  HN          0     109.656 171.851 140.568  1.00  0.00     0.188 HD
ATOM     17  C           0     111.202 173.153 140.145  0.00  0.00     0.161 C 
ATOM     18  N           0     112.035 173.201 139.036  0.00  0.00    -0.185 N 
ATOM     19  C           0     111.389 174.102 141.250  0.00  0.00     0.024 C 
ATOM     20  C           0     111.001 173.790 142.543  0.00  0.00     0.016 C 
ATOM     21  C           0     111.257 174.665 143.590  0.00  0.00     0.002 C 
ATOM     22  C           0     111.937 175.826 143.371  0.00  0.00     0.012 C 
ATOM     23  C           0     112.363 176.158 142.075  0.00  0.00    -0.024 C 
ATOM     24  C           0     113.242 177.233 141.854  0.00  0.00     0.012 C 
ATOM     25  C           0     113.551 177.598 140.578  0.00  0.00     0.002 C 
ATOM     26  C           0     112.970 176.963 139.492  0.00  0.00     0.016 C 
ATOM     27  C           0     112.071 175.905 139.662  0.00  0.00     0.027 C 
ATOM     28  C           0     111.924 175.383 140.969  0.00  0.00     0.002 C 
ATOM     29  C           0     111.844 174.320 136.227  0.00  0.00     0.002 A 
ENDROOT
BRANCH  18  30
ATOM     30  O           0     113.388 173.613 138.954  0.00  0.00    -0.275 OA
ATOM     31  C           0     114.187 172.474 139.282  0.00  0.00     0.238 C 
ENDBRANCH  18  30
TORSDOF 1
ENDMDL
