MODEL 1
REMARK VINA RESULT:      -8.1      0.000      0.000
REMARK  1 active torsions:
REMARK  status: ('A' for Active; 'I' for Inactive)
REMARK    1  A    between atoms: O_1  and  N_2 
ROOT
ATOM      1  N           0     111.540 176.650 140.280  0.00  0.00    -0.187 N 
ATOM      2  C           0     112.391 176.852 139.219  0.00  0.00     0.161 C 
ATOM      3  N           0     113.306 177.703 139.630  0.00  0.00    -0.281 N 
ATOM      4  HN          0     113.947 178.222 139.029  1.00  0.00     0.188 HD
ATOM      5  N           0     113.261 177.774 140.921  0.00  0.00    -0.281 N 
ATOM      6  HN          0     113.870 178.355 141.498  1.00  0.00     0.188 HD
ATOM      7  C           0     112.321 176.991 141.377  0.00  0.00     0.161 C 
ATOM      8  C           0     112.049 176.437 142.709  0.00  0.00     0.024 C 
ATOM      9  C           0     112.205 177.246 143.826  0.00  0.00     0.016 C 
ATOM     10  C           0     111.905 176.782 145.097  0.00  0.00     0.002 C 
ATOM     11  C           0     111.435 175.517 145.269  0.00  0.00     0.012 C 
ATOM     12  C           0     111.284 174.658 144.165  0.00  0.00    -0.024 C 
ATOM     13  C           0     110.725 173.382 144.356  0.00  0.00     0.012 C 
ATOM     14  C           0     110.698 172.497 143.325  0.00  0.00     0.002 C 
ATOM     15  C           0     111.205 172.842 142.086  0.00  0.00     0.016 C 
ATOM     16  C           0     111.698 174.124 141.818  0.00  0.00     0.027 C 
ATOM     17  C           0     112.196 174.396 140.474  0.00  0.00     0.194 C 
ATOM     18  O           0     113.270 174.958 140.398  0.00  0.00    -0.287 OA
ATOM     19  C           0     111.583 174.043 139.195  0.00  0.00     0.027 C 
ATOM     20  C           0     110.680 172.977 139.131  0.00  0.00     0.016 C 
ATOM     21  C           0     110.218 172.496 137.915  0.00  0.00     0.002 C 
ATOM     22  C           0     110.629 173.045 136.737  0.00  0.00     0.012 C 
ATOM     23  C           0     111.469 174.169 136.757  0.00  0.00    -0.024 C 
ATOM     24  C           0     112.001 174.703 135.570  0.00  0.00     0.012 C 
ATOM     25  C           0     112.659 175.896 135.591  0.00  0.00     0.002 C 
ATOM     26  C           0     112.803 176.604 136.778  0.00  0.00     0.016 C 
ATOM     27  C           0     112.329 176.084 137.969  0.00  0.00     0.024 C 
ATOM     28  C           0     111.796 174.773 137.998  0.00  0.00     0.002 C 
ATOM     29  C           0     111.685 175.076 142.869  0.00  0.00     0.002 C 
ENDROOT
BRANCH   1  30
ATOM     30  O           0     110.210 176.170 140.272  0.00  0.00    -0.279 OA
ATOM     31  H           0     109.743 176.655 139.576  0.00  0.00     0.245 HD
ENDBRANCH   1  30
TORSDOF 1
ENDMDL
MODEL 2
REMARK VINA RESULT:      -8.0      0.824      5.791
REMARK  1 active torsions:
REMARK  status: ('A' for Active; 'I' for Inactive)
REMARK    1  A    between atoms: O_1  and  N_2 
ROOT
ATOM      1  N           0     112.810 175.820 139.903  0.00  0.00    -0.187 N 
ATOM      2  C           0     112.392 176.570 140.978  0.00  0.00     0.161 C 
ATOM      3  N           0     112.320 177.815 140.559  0.00  0.00    -0.281 N 
ATOM      4  HN          0     112.253 178.640 141.156  1.00  0.00     0.188 HD
ATOM      5  N           0     112.346 177.823 139.265  0.00  0.00    -0.281 N 
ATOM      6  HN          0     112.296 178.660 138.683  1.00  0.00     0.188 HD
ATOM      7  C           0     112.447 176.602 138.814  0.00  0.00     0.161 C 
ATOM      8  C           0     112.195 176.006 137.497  0.00  0.00     0.024 C 
ATOM      9  C           0     112.604 176.683 136.356  0.00  0.00     0.016 C 
ATOM     10  C           0     112.438 176.131 135.095  0.00  0.00     0.002 C 
ATOM     11  C           0     111.878 174.898 134.957  0.00  0.00     0.012 C 
ATOM     12  C           0     111.431 174.190 136.087  0.00  0.00    -0.024 C 
ATOM     13  C           0     110.925 172.888 135.928  0.00  0.00     0.012 C 
ATOM     14  C           0     110.367 172.247 136.990  0.00  0.00     0.002 C 
ATOM     15  C           0     110.302 172.859 138.227  0.00  0.00     0.016 C 
ATOM     16  C           0     110.861 174.119 138.462  0.00  0.00     0.027 C 
ATOM     17  C           0     110.755 174.674 139.807  0.00  0.00     0.194 C 
ATOM     18  O           0     110.387 175.829 139.889  0.00  0.00    -0.287 OA
ATOM     19  C           0     110.997 174.003 141.082  0.00  0.00     0.027 C 
ATOM     20  C           0     110.896 172.610 141.162  0.00  0.00     0.016 C 
ATOM     21  C           0     110.939 171.954 142.382  0.00  0.00     0.002 C 
ATOM     22  C           0     111.082 172.643 143.550  0.00  0.00     0.012 C 
ATOM     23  C           0     111.271 174.033 143.510  0.00  0.00    -0.024 C 
ATOM     24  C           0     111.318 174.796 144.690  0.00  0.00     0.012 C 
ATOM     25  C           0     111.685 176.107 144.642  0.00  0.00     0.002 C 
ATOM     26  C           0     112.029 176.703 143.435  0.00  0.00     0.016 C 
ATOM     27  C           0     111.951 175.990 142.252  0.00  0.00     0.024 C 
ATOM     28  C           0     111.409 174.683 142.257  0.00  0.00     0.002 C 
ATOM     29  C           0     111.493 174.780 137.377  0.00  0.00     0.002 C 
ENDROOT
BRANCH   1  30
ATOM     30  O           0     113.421 174.544 139.897  0.00  0.00    -0.279 OA
ATOM     31  H           0     113.594 174.323 138.970  0.00  0.00     0.245 HD
ENDBRANCH   1  30
TORSDOF 1
ENDMDL
MODEL 3
REMARK VINA RESULT:      -7.9      9.505     11.557
REMARK  1 active torsions:
REMARK  status: ('A' for Active; 'I' for Inactive)
REMARK    1  A    between atoms: O_1  and  N_2 
ROOT
ATOM      1  N           0     112.470 163.482 141.769  0.00  0.00    -0.187 N 
ATOM      2  C           0     112.195 162.336 141.061  0.00  0.00     0.161 C 
ATOM      3  N           0     112.252 161.342 141.922  0.00  0.00    -0.281 N 
ATOM      4  HN          0     112.312 160.352 141.684  1.00  0.00     0.188 HD
ATOM      5  N           0     112.218 161.827 143.122  0.00  0.00    -0.281 N 
ATOM      6  HN          0     112.240 161.272 143.978  1.00  0.00     0.188 HD
ATOM      7  C           0     112.152 163.130 143.074  0.00  0.00     0.161 C 
ATOM      8  C           0     111.770 164.141 144.067  0.00  0.00     0.024 C 
ATOM      9  C           0     112.202 164.003 145.378  0.00  0.00     0.016 C 
ATOM     10  C           0     111.913 164.963 146.335  0.00  0.00     0.002 C 
ATOM     11  C           0     111.204 166.075 145.995  0.00  0.00     0.012 C 
ATOM     12  C           0     110.730 166.241 144.682  0.00  0.00    -0.024 C 
ATOM     13  C           0     110.066 167.431 144.335  0.00  0.00     0.012 C 
ATOM     14  C           0     109.486 167.547 143.110  0.00  0.00     0.002 C 
ATOM     15  C           0     109.552 166.510 142.198  0.00  0.00     0.016 C 
ATOM     16  C           0     110.267 165.337 142.460  0.00  0.00     0.027 C 
ATOM     17  C           0     110.291 164.307 141.427  0.00  0.00     0.194 C 
ATOM     18  O           0     110.068 163.170 141.791  0.00  0.00    -0.287 OA
ATOM     19  C           0     110.512 164.473 139.992  0.00  0.00     0.027 C 
ATOM     20  C           0     110.249 165.707 139.388  0.00  0.00     0.016 C 
ATOM     21  C           0     110.271 165.855 138.010  0.00  0.00     0.002 C 
ATOM     22  C           0     110.550 164.801 137.192  0.00  0.00     0.012 C 
ATOM     23  C           0     110.900 163.565 137.756  0.00  0.00    -0.024 C 
ATOM     24  C           0     111.092 162.425 136.955  0.00  0.00     0.012 C 
ATOM     25  C           0     111.611 161.287 137.497  0.00  0.00     0.002 C 
ATOM     26  C           0     111.966 161.240 138.839  0.00  0.00     0.016 C 
ATOM     27  C           0     111.748 162.331 139.663  0.00  0.00     0.024 C 
ATOM     28  C           0     111.056 163.459 139.162  0.00  0.00     0.002 C 
ATOM     29  C           0     110.922 165.221 143.713  0.00  0.00     0.002 C 
ENDROOT
BRANCH   1  30
ATOM     30  O           0     112.924 164.733 141.289  0.00  0.00    -0.279 OA
ATOM     31  H           0     112.428 164.918 140.479  0.00  0.00     0.245 HD
ENDBRANCH   1  30
TORSDOF 1
ENDMDL
MODEL 4
REMARK VINA RESULT:      -7.8      9.457     12.332
REMARK  1 active torsions:
REMARK  status: ('A' for Active; 'I' for Inactive)
REMARK    1  A    between atoms: O_1  and  N_2 
ROOT
ATOM      1  N           0     111.148 163.314 141.830  0.00  0.00    -0.187 N 
ATOM      2  C           0     111.955 163.867 142.797  0.00  0.00     0.161 C 
ATOM      3  N           0     113.084 163.192 142.773  0.00  0.00    -0.281 N 
ATOM      4  HN          0     113.800 163.205 143.499  1.00  0.00     0.188 HD
ATOM      5  N           0     113.139 162.509 141.675  0.00  0.00    -0.281 N 
ATOM      6  HN          0     113.913 161.905 141.399  1.00  0.00     0.188 HD
ATOM      7  C           0     112.057 162.709 140.972  0.00  0.00     0.161 C 
ATOM      8  C           0     111.733 162.475 139.559  0.00  0.00     0.024 C 
ATOM      9  C           0     112.164 161.305 138.949  0.00  0.00     0.016 C 
ATOM     10  C           0     111.832 161.016 137.635  0.00  0.00     0.002 C 
ATOM     11  C           0     111.059 161.879 136.920  0.00  0.00     0.012 C 
ATOM     12  C           0     110.621 163.085 137.495  0.00  0.00    -0.024 C 
ATOM     13  C           0     109.762 163.924 136.765  0.00  0.00     0.012 C 
ATOM     14  C           0     109.441 165.152 137.255  0.00  0.00     0.002 C 
ATOM     15  C           0     109.943 165.579 138.470  0.00  0.00     0.016 C 
ATOM     16  C           0     110.736 164.754 139.276  0.00  0.00     0.027 C 
ATOM     17  C           0     111.204 165.290 140.550  0.00  0.00     0.194 C 
ATOM     18  O           0     112.380 165.131 140.804  0.00  0.00    -0.287 OA
ATOM     19  C           0     110.442 166.034 141.550  0.00  0.00     0.027 C 
ATOM     20  C           0     109.290 166.729 141.168  0.00  0.00     0.016 C 
ATOM     21  C           0     108.644 167.590 142.042  0.00  0.00     0.002 C 
ATOM     22  C           0     109.110 167.791 143.307  0.00  0.00     0.012 C 
ATOM     23  C           0     110.214 167.053 143.760  0.00  0.00    -0.024 C 
ATOM     24  C           0     110.793 167.303 145.017  0.00  0.00     0.012 C 
ATOM     25  C           0     111.739 166.458 145.514  0.00  0.00     0.002 C 
ATOM     26  C           0     112.136 165.337 144.796  0.00  0.00     0.016 C 
ATOM     27  C           0     111.617 165.089 143.538  0.00  0.00     0.024 C 
ATOM     28  C           0     110.764 166.041 142.932  0.00  0.00     0.002 C 
ATOM     29  C           0     111.037 163.451 138.803  0.00  0.00     0.002 C 
ENDROOT
BRANCH   1  30
ATOM     30  O           0     109.741 163.378 141.707  0.00  0.00    -0.279 OA
ATOM     31  H           0     109.536 163.234 140.772  0.00  0.00     0.245 HD
ENDBRANCH   1  30
TORSDOF 1
ENDMDL
MODEL 5
REMARK VINA RESULT:      -7.7      8.455     11.720
REMARK  1 active torsions:
REMARK  status: ('A' for Active; 'I' for Inactive)
REMARK    1  A    between atoms: O_1  and  N_2 
ROOT
ATOM      1  N           0     109.889 167.361 136.885  0.00  0.00    -0.187 N 
ATOM      2  C           0     109.099 167.706 137.955  0.00  0.00     0.161 C 
ATOM      3  N           0     108.130 168.458 137.477  0.00  0.00    -0.281 N 
ATOM      4  HN          0     107.509 169.049 138.030  1.00  0.00     0.188 HD
ATOM      5  N           0     108.094 168.324 136.191  0.00  0.00    -0.281 N 
ATOM      6  HN          0     107.430 168.790 135.572  1.00  0.00     0.188 HD
ATOM      7  C           0     109.032 167.503 135.802  0.00  0.00     0.161 C 
ATOM      8  C           0     109.241 166.752 134.558  0.00  0.00     0.024 C 
ATOM      9  C           0     108.988 167.369 133.342  0.00  0.00     0.016 C 
ATOM     10  C           0     109.226 166.717 132.142  0.00  0.00     0.002 C 
ATOM     11  C           0     109.730 165.453 132.140  0.00  0.00     0.012 C 
ATOM     12  C           0     109.980 164.785 133.352  0.00  0.00    -0.024 C 
ATOM     13  C           0     110.571 163.510 133.327  0.00  0.00     0.012 C 
ATOM     14  C           0     110.692 162.800 134.480  0.00  0.00     0.002 C 
ATOM     15  C           0     110.250 163.325 135.681  0.00  0.00     0.016 C 
ATOM     16  C           0     109.729 164.619 135.776  0.00  0.00     0.027 C 
ATOM     17  C           0     109.304 165.089 137.091  0.00  0.00     0.194 C 
ATOM     18  O           0     108.217 165.627 137.148  0.00  0.00    -0.287 OA
ATOM     19  C           0     110.006 164.958 138.366  0.00  0.00     0.027 C 
ATOM     20  C           0     110.949 163.940 138.537  0.00  0.00     0.016 C 
ATOM     21  C           0     111.502 163.670 139.780  0.00  0.00     0.002 C 
ATOM     22  C           0     111.144 164.389 140.881  0.00  0.00     0.012 C 
ATOM     23  C           0     110.264 165.473 140.741  0.00  0.00    -0.024 C 
ATOM     24  C           0     109.787 166.175 141.862  0.00  0.00     0.012 C 
ATOM     25  C           0     109.087 167.332 141.698  0.00  0.00     0.002 C 
ATOM     26  C           0     108.846 167.839 140.427  0.00  0.00     0.016 C 
ATOM     27  C           0     109.264 167.149 139.303  0.00  0.00     0.024 C 
ATOM     28  C           0     109.841 165.864 139.445  0.00  0.00     0.002 C 
ATOM     29  C           0     109.643 165.393 134.590  0.00  0.00     0.002 C 
ENDROOT
BRANCH   1  30
ATOM     30  O           0     111.234 166.923 136.881  0.00  0.00    -0.279 OA
ATOM     31  H           0     111.742 167.577 137.382  0.00  0.00     0.245 HD
ENDBRANCH   1  30
TORSDOF 1
ENDMDL
MODEL 6
REMARK VINA RESULT:      -7.7     10.449     12.684
REMARK  1 active torsions:
REMARK  status: ('A' for Active; 'I' for Inactive)
REMARK    1  A    between atoms: O_1  and  N_2 
ROOT
ATOM      1  N           0     112.071 162.832 137.034  0.00  0.00    -0.187 N 
ATOM      2  C           0     111.812 161.705 136.290  0.00  0.00     0.161 C 
ATOM      3  N           0     111.840 160.690 137.127  0.00  0.00    -0.281 N 
ATOM      4  HN          0     111.903 159.706 136.865  1.00  0.00     0.188 HD
ATOM      5  N           0     111.773 161.145 138.336  0.00  0.00    -0.281 N 
ATOM      6  HN          0     111.768 160.569 139.179  1.00  0.00     0.188 HD
ATOM      7  C           0     111.713 162.449 138.320  0.00  0.00     0.161 C 
ATOM      8  C           0     111.305 163.437 139.325  0.00  0.00     0.024 C 
ATOM      9  C           0     111.698 163.264 140.645  0.00  0.00     0.016 C 
ATOM     10  C           0     111.383 164.202 141.616  0.00  0.00     0.002 C 
ATOM     11  C           0     110.689 165.324 141.283  0.00  0.00     0.012 C 
ATOM     12  C           0     110.255 165.526 139.962  0.00  0.00    -0.024 C 
ATOM     13  C           0     109.606 166.726 139.625  0.00  0.00     0.012 C 
ATOM     14  C           0     109.063 166.876 138.387  0.00  0.00     0.002 C 
ATOM     15  C           0     109.152 165.861 137.452  0.00  0.00     0.016 C 
ATOM     16  C           0     109.855 164.679 137.705  0.00  0.00     0.027 C 
ATOM     17  C           0     109.906 163.675 136.647  0.00  0.00     0.194 C 
ATOM     18  O           0     109.667 162.530 136.976  0.00  0.00    -0.287 OA
ATOM     19  C           0     110.169 163.875 135.224  0.00  0.00     0.027 C 
ATOM     20  C           0     109.929 165.125 134.644  0.00  0.00     0.016 C 
ATOM     21  C           0     109.993 165.307 133.271  0.00  0.00     0.002 C 
ATOM     22  C           0     110.291 164.272 132.436  0.00  0.00     0.012 C 
ATOM     23  C           0     110.621 163.021 132.979  0.00  0.00    -0.024 C 
ATOM     24  C           0     110.832 161.901 132.156  0.00  0.00     0.012 C 
ATOM     25  C           0     111.330 160.748 132.685  0.00  0.00     0.002 C 
ATOM     26  C           0     111.645 160.666 134.035  0.00  0.00     0.016 C 
ATOM     27  C           0     111.407 161.736 134.879  0.00  0.00     0.024 C 
ATOM     28  C           0     110.734 162.880 134.386  0.00  0.00     0.002 C 
ATOM     29  C           0     110.472 164.529 138.973  0.00  0.00     0.002 C 
ENDROOT
BRANCH   1  30
ATOM     30  O           0     112.543 164.093 136.599  0.00  0.00    -0.279 OA
ATOM     31  H           0     113.308 164.309 137.150  0.00  0.00     0.245 HD
ENDBRANCH   1  30
TORSDOF 1
ENDMDL
MODEL 7
REMARK VINA RESULT:      -7.5      8.150      9.768
REMARK  1 active torsions:
REMARK  status: ('A' for Active; 'I' for Inactive)
REMARK    1  A    between atoms: O_1  and  N_2 
ROOT
ATOM      1  N           0     108.416 167.128 137.344  0.00  0.00    -0.187 N 
ATOM      2  C           0     108.802 167.862 136.247  0.00  0.00     0.161 C 
ATOM      3  N           0     108.884 169.114 136.645  0.00  0.00    -0.281 N 
ATOM      4  HN          0     108.932 169.929 136.033  1.00  0.00     0.188 HD
ATOM      5  N           0     108.894 169.142 137.938  0.00  0.00    -0.281 N 
ATOM      6  HN          0     108.960 169.987 138.506  1.00  0.00     0.188 HD
ATOM      7  C           0     108.809 167.927 138.410  0.00  0.00     0.161 C 
ATOM      8  C           0     109.099 167.351 139.729  0.00  0.00     0.024 C 
ATOM      9  C           0     108.722 168.045 140.870  0.00  0.00     0.016 C 
ATOM     10  C           0     108.925 167.513 142.134  0.00  0.00     0.002 C 
ATOM     11  C           0     109.491 166.283 142.275  0.00  0.00     0.012 C 
ATOM     12  C           0     109.907 165.558 141.144  0.00  0.00    -0.024 C 
ATOM     13  C           0     110.419 164.259 141.308  0.00  0.00     0.012 C 
ATOM     14  C           0     110.947 163.603 140.241  0.00  0.00     0.002 C 
ATOM     15  C           0     110.977 164.197 138.992  0.00  0.00     0.016 C 
ATOM     16  C           0     110.409 165.452 138.755  0.00  0.00     0.027 C 
ATOM     17  C           0     110.475 165.987 137.399  0.00  0.00     0.194 C 
ATOM     18  O           0     110.838 167.141 137.289  0.00  0.00    -0.287 OA
ATOM     19  C           0     110.197 165.296 136.142  0.00  0.00     0.027 C 
ATOM     20  C           0     110.299 163.902 136.080  0.00  0.00     0.016 C 
ATOM     21  C           0     110.222 163.227 134.871  0.00  0.00     0.002 C 
ATOM     22  C           0     110.044 163.898 133.699  0.00  0.00     0.012 C 
ATOM     23  C           0     109.854 165.288 133.722  0.00  0.00    -0.024 C 
ATOM     24  C           0     109.773 166.033 132.533  0.00  0.00     0.012 C 
ATOM     25  C           0     109.404 167.345 132.571  0.00  0.00     0.002 C 
ATOM     26  C           0     109.094 167.959 133.778  0.00  0.00     0.016 C 
ATOM     27  C           0     109.207 167.264 134.970  0.00  0.00     0.024 C 
ATOM     28  C           0     109.751 165.957 134.969  0.00  0.00     0.002 C 
ATOM     29  C           0     109.807 166.129 139.847  0.00  0.00     0.002 C 
ENDROOT
BRANCH   1  30
ATOM     30  O           0     107.808 165.852 137.388  0.00  0.00    -0.279 OA
ATOM     31  H           0     106.917 165.955 137.025  0.00  0.00     0.245 HD
ENDBRANCH   1  30
TORSDOF 1
ENDMDL
MODEL 8
REMARK VINA RESULT:      -7.5      9.353     11.443
REMARK  1 active torsions:
REMARK  status: ('A' for Active; 'I' for Inactive)
REMARK    1  A    between atoms: O_1  and  N_2 
ROOT
ATOM      1  N           0     112.452 163.528 140.899  0.00  0.00    -0.187 N 
ATOM      2  C           0     111.802 162.818 139.917  0.00  0.00     0.161 C 
ATOM      3  N           0     111.922 161.546 140.233  0.00  0.00    -0.281 N 
ATOM      4  HN          0     111.745 160.760 139.609  1.00  0.00     0.188 HD
ATOM      5  N           0     112.301 161.457 141.467  0.00  0.00    -0.281 N 
ATOM      6  HN          0     112.462 160.583 141.969  1.00  0.00     0.188 HD
ATOM      7  C           0     112.448 162.650 141.976  0.00  0.00     0.161 C 
ATOM      8  C           0     112.529 163.138 143.358  0.00  0.00     0.024 C 
ATOM      9  C           0     113.273 162.424 144.287  0.00  0.00     0.016 C 
ATOM     10  C           0     113.425 162.878 145.588  0.00  0.00     0.002 C 
ATOM     11  C           0     112.850 164.050 145.973  0.00  0.00     0.012 C 
ATOM     12  C           0     112.070 164.791 145.069  0.00  0.00    -0.024 C 
ATOM     13  C           0     111.550 166.035 145.466  0.00  0.00     0.012 C 
ATOM     14  C           0     110.686 166.697 144.650  0.00  0.00     0.002 C 
ATOM     15  C           0     110.322 166.162 143.427  0.00  0.00     0.016 C 
ATOM     16  C           0     110.871 164.969 142.947  0.00  0.00     0.027 C 
ATOM     17  C           0     110.436 164.495 141.637  0.00  0.00     0.194 C 
ATOM     18  O           0     110.130 163.323 141.560  0.00  0.00    -0.287 OA
ATOM     19  C           0     110.281 165.265 140.406  0.00  0.00     0.027 C 
ATOM     20  C           0     110.077 166.647 140.472  0.00  0.00     0.016 C 
ATOM     21  C           0     109.747 167.383 139.345  0.00  0.00     0.002 C 
ATOM     22  C           0     109.607 166.785 138.128  0.00  0.00     0.012 C 
ATOM     23  C           0     109.883 165.415 137.999  0.00  0.00    -0.024 C 
ATOM     24  C           0     109.652 164.735 136.789  0.00  0.00     0.012 C 
ATOM     25  C           0     110.097 163.458 136.627  0.00  0.00     0.002 C 
ATOM     26  C           0     110.792 162.815 137.643  0.00  0.00     0.016 C 
ATOM     27  C           0     110.997 163.441 138.860  0.00  0.00     0.024 C 
ATOM     28  C           0     110.397 164.698 139.110  0.00  0.00     0.002 C 
ATOM     29  C           0     111.814 164.293 143.764  0.00  0.00     0.002 C 
ENDROOT
BRANCH   1  30
ATOM     30  O           0     112.964 164.846 140.850  0.00  0.00    -0.279 OA
ATOM     31  H           0     112.201 165.441 140.859  0.00  0.00     0.245 HD
ENDBRANCH   1  30
TORSDOF 1
ENDMDL
MODEL 9
REMARK VINA RESULT:      -7.4      9.754     12.629
REMARK  1 active torsions:
REMARK  status: ('A' for Active; 'I' for Inactive)
REMARK    1  A    between atoms: O_1  and  N_2 
ROOT
ATOM      1  N           0     111.370 165.563 141.330  0.00  0.00    -0.187 N 
ATOM      2  C           0     110.735 165.766 142.532  0.00  0.00     0.161 C 
ATOM      3  N           0     109.645 166.455 142.268  0.00  0.00    -0.281 N 
ATOM      4  HN          0     109.075 166.950 142.953  1.00  0.00     0.188 HD
ATOM      5  N           0     109.415 166.401 140.996  0.00  0.00    -0.281 N 
ATOM      6  HN          0     108.626 166.843 140.524  1.00  0.00     0.188 HD
ATOM      7  C           0     110.342 165.696 140.405  0.00  0.00     0.161 C 
ATOM      8  C           0     110.410 165.048 139.090  0.00  0.00     0.024 C 
ATOM      9  C           0     109.917 165.717 137.978  0.00  0.00     0.016 C 
ATOM     10  C           0     110.013 165.167 136.708  0.00  0.00     0.002 C 
ATOM     11  C           0     110.609 163.957 136.531  0.00  0.00     0.012 C 
ATOM     12  C           0     111.101 163.238 137.635  0.00  0.00    -0.024 C 
ATOM     13  C           0     111.781 162.026 137.421  0.00  0.00     0.012 C 
ATOM     14  C           0     112.141 161.258 138.484  0.00  0.00     0.002 C 
ATOM     15  C           0     111.855 161.662 139.774  0.00  0.00     0.016 C 
ATOM     16  C           0     111.254 162.895 140.049  0.00  0.00     0.027 C 
ATOM     17  C           0     111.008 163.239 141.446  0.00  0.00     0.194 C 
ATOM     18  O           0     109.905 163.671 141.711  0.00  0.00    -0.287 OA
ATOM     19  C           0     111.913 163.091 142.584  0.00  0.00     0.027 C 
ATOM     20  C           0     112.950 162.154 142.529  0.00  0.00     0.016 C 
ATOM     21  C           0     113.713 161.857 143.648  0.00  0.00     0.002 C 
ATOM     22  C           0     113.479 162.468 144.843  0.00  0.00     0.012 C 
ATOM     23  C           0     112.504 163.474 144.924  0.00  0.00    -0.024 C 
ATOM     24  C           0     112.158 164.056 146.156  0.00  0.00     0.012 C 
ATOM     25  C           0     111.350 165.153 146.191  0.00  0.00     0.002 C 
ATOM     26  C           0     110.869 165.716 145.016  0.00  0.00     0.016 C 
ATOM     27  C           0     111.157 165.141 143.791  0.00  0.00     0.024 C 
ATOM     28  C           0     111.850 163.907 143.743  0.00  0.00     0.002 C 
ATOM     29  C           0     110.919 163.732 138.954  0.00  0.00     0.002 C 
ENDROOT
BRANCH   1  30
ATOM     30  O           0     112.728 165.250 141.085  0.00  0.00    -0.279 OA
ATOM     31  H           0     112.778 164.290 140.983  0.00  0.00     0.245 HD
ENDBRANCH   1  30
TORSDOF 1
ENDMDL
