MODEL 1
REMARK VINA RESULT:      -8.3      0.000      0.000
REMARK  1 active torsions:
REMARK  status: ('A' for Active; 'I' for Inactive)
REMARK    1  A    between atoms: N_18  and  N_19 
ROOT
ATOM      1  O           0     113.421 174.930 140.061  0.00  0.00    -0.287 OA
ATOM      2  C           0     112.371 174.402 140.336  0.00  0.00     0.194 C 
ATOM      3  C           0     111.635 173.770 139.243  0.00  0.00     0.027 A 
ATOM      4  C           0     111.196 172.456 139.430  0.00  0.00     0.016 A 
ATOM      5  C           0     110.472 171.777 138.467  0.00  0.00     0.002 A 
ATOM      6  C           0     110.197 172.362 137.270  0.00  0.00     0.012 A 
ATOM      7  C           0     110.659 173.663 137.006  0.00  0.00    -0.024 A 
ATOM      8  C           0     110.452 174.215 135.728  0.00  0.00     0.012 A 
ATOM      9  C           0     110.859 175.484 135.451  0.00  0.00     0.002 A 
ATOM     10  C           0     111.466 176.250 136.434  0.00  0.00     0.016 A 
ATOM     11  C           0     111.680 175.749 137.710  0.00  0.00     0.023 A 
ATOM     12  C           0     112.292 176.597 138.726  0.00  0.00     0.150 C 
ATOM     13  N           0     113.283 177.456 138.736  0.00  0.00    -0.282 N 
ATOM     14  HN          0     113.709 177.875 137.909  1.00  0.00     0.188 HD
ATOM     15  N           0     113.637 177.691 139.962  0.00  0.00    -0.282 N 
ATOM     16  HN          0     114.443 178.248 140.244  1.00  0.00     0.188 HD
ATOM     17  C           0     112.805 177.106 140.776  0.00  0.00     0.150 C 
ATOM     18  N           0     111.723 176.710 140.000  0.00  0.00    -0.244 N 
ATOM     19  C           0     112.877 176.751 142.197  0.00  0.00     0.023 C 
ATOM     20  C           0     113.499 177.582 143.114  0.00  0.00     0.016 C 
ATOM     21  C           0     113.500 177.274 144.467  0.00  0.00     0.002 C 
ATOM     22  C           0     112.849 176.167 144.924  0.00  0.00     0.012 C 
ATOM     23  C           0     112.190 175.315 144.022  0.00  0.00    -0.024 C 
ATOM     24  C           0     111.349 174.288 144.485  0.00  0.00     0.012 C 
ATOM     25  C           0     110.806 173.412 143.595  0.00  0.00     0.002 C 
ATOM     26  C           0     111.109 173.484 142.245  0.00  0.00     0.016 C 
ATOM     27  C           0     111.957 174.474 141.742  0.00  0.00     0.027 C 
ATOM     28  C           0     112.352 175.506 142.625  0.00  0.00     0.002 C 
ATOM     29  C           0     111.334 174.405 138.010  0.00  0.00     0.002 A 
ENDROOT
BRANCH  18  30
ATOM     30  N           0     110.417 176.541 140.364  0.00  0.00    -0.239 NA
ATOM     31  HN1         0     109.978 177.447 140.300  0.00  0.00     0.143 HD
ATOM     32  HN2         0     109.991 175.963 139.654  0.00  0.00     0.143 HD
ENDBRANCH  18  30
TORSDOF 1
ENDMDL
MODEL 2
REMARK VINA RESULT:      -8.2      1.107      5.756
REMARK  1 active torsions:
REMARK  status: ('A' for Active; 'I' for Inactive)
REMARK    1  A    between atoms: N_18  and  N_19 
ROOT
ATOM      1  O           0     110.639 176.132 140.772  0.00  0.00    -0.287 OA
ATOM      2  C           0     110.965 174.995 141.014  0.00  0.00     0.194 C 
ATOM      3  C           0     111.429 174.709 142.370  0.00  0.00     0.027 A 
ATOM      4  C           0     110.852 173.623 143.037  0.00  0.00     0.016 A 
ATOM      5  C           0     111.236 173.254 144.313  0.00  0.00     0.002 A 
ATOM      6  C           0     112.172 173.975 144.989  0.00  0.00     0.012 A 
ATOM      7  C           0     112.748 175.108 144.387  0.00  0.00    -0.024 A 
ATOM      8  C           0     113.640 175.899 145.135  0.00  0.00     0.012 A 
ATOM      9  C           0     114.239 176.983 144.571  0.00  0.00     0.002 A 
ATOM     10  C           0     113.988 177.307 143.248  0.00  0.00     0.016 A 
ATOM     11  C           0     113.123 176.548 142.471  0.00  0.00     0.023 A 
ATOM     12  C           0     112.908 176.903 141.073  0.00  0.00     0.150 C 
ATOM     13  N           0     112.744 178.030 140.421  0.00  0.00    -0.282 N 
ATOM     14  HN          0     112.963 178.958 140.783  1.00  0.00     0.188 HD
ATOM     15  N           0     112.261 177.779 139.244  0.00  0.00    -0.282 N 
ATOM     16  HN          0     111.952 178.482 138.573  1.00  0.00     0.188 HD
ATOM     17  C           0     112.230 176.491 139.050  0.00  0.00     0.150 C 
ATOM     18  N           0     112.988 175.931 140.069  0.00  0.00    -0.244 N 
ATOM     19  C           0     111.513 175.639 138.095  0.00  0.00     0.023 C 
ATOM     20  C           0     111.312 176.041 136.784  0.00  0.00     0.016 C 
ATOM     21  C           0     110.697 175.199 135.869  0.00  0.00     0.002 C 
ATOM     22  C           0     110.317 173.941 136.233  0.00  0.00     0.012 C 
ATOM     23  C           0     110.527 173.495 137.549  0.00  0.00    -0.024 C 
ATOM     24  C           0     110.331 172.146 137.892  0.00  0.00     0.012 C 
ATOM     25  C           0     110.440 171.762 139.194  0.00  0.00     0.002 C 
ATOM     26  C           0     110.689 172.687 140.194  0.00  0.00     0.016 C 
ATOM     27  C           0     110.869 174.042 139.903  0.00  0.00     0.027 C 
ATOM     28  C           0     110.966 174.409 138.541  0.00  0.00     0.002 C 
ATOM     29  C           0     112.426 175.455 143.050  0.00  0.00     0.002 A 
ENDROOT
BRANCH  18  30
ATOM     30  N           0     113.696 174.762 140.075  0.00  0.00    -0.239 NA
ATOM     31  HN1         0     113.165 174.103 140.622  0.00  0.00     0.143 HD
ATOM     32  HN2         0     113.695 174.418 139.126  0.00  0.00     0.143 HD
ENDBRANCH  18  30
TORSDOF 1
ENDMDL
MODEL 3
REMARK VINA RESULT:      -7.4     10.369     12.978
REMARK  1 active torsions:
REMARK  status: ('A' for Active; 'I' for Inactive)
REMARK    1  A    between atoms: N_18  and  N_19 
ROOT
ATOM      1  O           0     112.123 164.874 137.164  0.00  0.00    -0.287 OA
ATOM      2  C           0     110.998 165.103 137.538  0.00  0.00     0.194 C 
ATOM      3  C           0     110.725 164.948 138.965  0.00  0.00     0.027 A 
ATOM      4  C           0     110.085 166.004 139.622  0.00  0.00     0.016 A 
ATOM      5  C           0     109.761 165.947 140.965  0.00  0.00     0.002 A 
ATOM      6  C           0     110.100 164.862 141.713  0.00  0.00     0.012 A 
ATOM      7  C           0     110.792 163.793 141.117  0.00  0.00    -0.024 A 
ATOM      8  C           0     111.222 162.723 141.925  0.00  0.00     0.012 A 
ATOM      9  C           0     111.865 161.659 141.373  0.00  0.00     0.002 A 
ATOM     10  C           0     112.087 161.611 140.005  0.00  0.00     0.016 A 
ATOM     11  C           0     111.670 162.639 139.171  0.00  0.00     0.023 A 
ATOM     12  C           0     111.893 162.538 137.734  0.00  0.00     0.150 C 
ATOM     13  N           0     112.886 162.128 136.980  0.00  0.00    -0.282 N 
ATOM     14  HN          0     113.673 161.563 137.298  1.00  0.00     0.188 HD
ATOM     15  N           0     112.710 162.554 135.768  0.00  0.00    -0.282 N 
ATOM     16  HN          0     113.382 162.456 135.007  1.00  0.00     0.188 HD
ATOM     17  C           0     111.543 163.125 135.671  0.00  0.00     0.150 C 
ATOM     18  N           0     110.855 162.792 136.830  0.00  0.00    -0.244 N 
ATOM     19  C           0     110.957 164.044 134.690  0.00  0.00     0.023 C 
ATOM     20  C           0     111.228 163.919 133.337  0.00  0.00     0.016 C 
ATOM     21  C           0     110.612 164.746 132.408  0.00  0.00     0.002 C 
ATOM     22  C           0     109.694 165.671 132.808  0.00  0.00     0.012 C 
ATOM     23  C           0     109.380 165.808 134.171  0.00  0.00    -0.024 C 
ATOM     24  C           0     108.300 166.607 134.584  0.00  0.00     0.012 C 
ATOM     25  C           0     108.081 166.806 135.914  0.00  0.00     0.002 C 
ATOM     26  C           0     108.938 166.278 136.866  0.00  0.00     0.016 C 
ATOM     27  C           0     110.037 165.496 136.502  0.00  0.00     0.027 C 
ATOM     28  C           0     110.145 165.114 135.144  0.00  0.00     0.002 C 
ATOM     29  C           0     111.062 163.797 139.724  0.00  0.00     0.002 A 
ENDROOT
BRANCH  18  30
ATOM     30  N           0     109.509 162.670 137.029  0.00  0.00    -0.239 NA
ATOM     31  HN1         0     109.118 162.318 136.168  0.00  0.00     0.143 HD
ATOM     32  HN2         0     109.382 161.947 137.722  0.00  0.00     0.143 HD
ENDBRANCH  18  30
TORSDOF 1
ENDMDL
MODEL 4
REMARK VINA RESULT:      -7.3     10.224     12.791
REMARK  1 active torsions:
REMARK  status: ('A' for Active; 'I' for Inactive)
REMARK    1  A    between atoms: N_18  and  N_19 
ROOT
ATOM      1  O           0     109.850 162.425 137.077  0.00  0.00    -0.287 OA
ATOM      2  C           0     110.123 163.519 136.645  0.00  0.00     0.194 C 
ATOM      3  C           0     110.326 163.634 135.202  0.00  0.00     0.027 A 
ATOM      4  C           0     109.633 164.644 134.527  0.00  0.00     0.016 A 
ATOM      5  C           0     109.773 164.851 133.167  0.00  0.00     0.002 A 
ATOM      6  C           0     110.571 164.038 132.423  0.00  0.00     0.012 A 
ATOM      7  C           0     111.251 162.973 133.039  0.00  0.00    -0.024 A 
ATOM      8  C           0     111.992 162.082 132.240  0.00  0.00     0.012 A 
ATOM      9  C           0     112.688 161.062 132.811  0.00  0.00     0.002 A 
ATOM     10  C           0     112.687 160.901 134.187  0.00  0.00     0.016 A 
ATOM     11  C           0     111.978 161.763 135.013  0.00  0.00     0.023 A 
ATOM     12  C           0     112.027 161.581 136.459  0.00  0.00     0.150 C 
ATOM     13  N           0     111.990 160.543 137.260  0.00  0.00    -0.282 N 
ATOM     14  HN          0     112.141 159.574 136.978  1.00  0.00     0.188 HD
ATOM     15  N           0     111.732 160.941 138.468  0.00  0.00    -0.282 N 
ATOM     16  HN          0     111.555 160.328 139.263  1.00  0.00     0.188 HD
ATOM     17  C           0     111.733 162.243 138.508  0.00  0.00     0.150 C 
ATOM     18  N           0     112.289 162.663 137.307  0.00  0.00    -0.244 N 
ATOM     19  C           0     111.203 163.215 139.469  0.00  0.00     0.023 C 
ATOM     20  C           0     111.249 162.976 140.833  0.00  0.00     0.016 C 
ATOM     21  C           0     110.811 163.932 141.738  0.00  0.00     0.002 C 
ATOM     22  C           0     110.367 165.145 141.302  0.00  0.00     0.012 C 
ATOM     23  C           0     110.329 165.428 139.926  0.00  0.00    -0.024 C 
ATOM     24  C           0     110.068 166.730 139.465  0.00  0.00     0.012 C 
ATOM     25  C           0     109.933 166.955 138.129  0.00  0.00     0.002 C 
ATOM     26  C           0     109.996 165.913 137.218  0.00  0.00     0.016 C 
ATOM     27  C           0     110.231 164.599 137.631  0.00  0.00     0.027 C 
ATOM     28  C           0     110.579 164.394 138.986  0.00  0.00     0.002 C 
ATOM     29  C           0     111.183 162.793 134.445  0.00  0.00     0.002 A 
ENDROOT
BRANCH  18  30
ATOM     30  N           0     112.980 163.809 137.031  0.00  0.00    -0.239 NA
ATOM     31  HN1         0     112.569 164.539 137.593  0.00  0.00     0.143 HD
ATOM     32  HN2         0     113.919 163.672 137.375  0.00  0.00     0.143 HD
ENDBRANCH  18  30
TORSDOF 1
ENDMDL
MODEL 5
REMARK VINA RESULT:      -7.2      8.890     11.833
REMARK  1 active torsions:
REMARK  status: ('A' for Active; 'I' for Inactive)
REMARK    1  A    between atoms: N_18  and  N_19 
ROOT
ATOM      1  O           0     109.214 164.761 141.778  0.00  0.00    -0.287 OA
ATOM      2  C           0     110.241 164.230 141.431  0.00  0.00     0.194 C 
ATOM      3  C           0     111.038 163.577 142.468  0.00  0.00     0.027 A 
ATOM      4  C           0     111.455 162.263 142.235  0.00  0.00     0.016 A 
ATOM      5  C           0     112.231 161.565 143.142  0.00  0.00     0.002 A 
ATOM      6  C           0     112.582 162.129 144.329  0.00  0.00     0.012 A 
ATOM      7  C           0     112.146 163.429 144.640  0.00  0.00    -0.024 A 
ATOM      8  C           0     112.435 163.960 145.911  0.00  0.00     0.012 A 
ATOM      9  C           0     112.055 165.227 146.231  0.00  0.00     0.002 A 
ATOM     10  C           0     111.396 166.013 145.298  0.00  0.00     0.016 A 
ATOM     11  C           0     111.101 165.532 144.030  0.00  0.00     0.023 A 
ATOM     12  C           0     110.434 166.399 143.066  0.00  0.00     0.150 C 
ATOM     13  N           0     109.451 167.266 143.129  0.00  0.00    -0.282 N 
ATOM     14  HN          0     109.079 167.674 143.987  1.00  0.00     0.188 HD
ATOM     15  N           0     109.025 167.521 141.931  0.00  0.00    -0.282 N 
ATOM     16  HN          0     108.208 168.087 141.706  1.00  0.00     0.188 HD
ATOM     17  C           0     109.802 166.943 141.059  0.00  0.00     0.150 C 
ATOM     18  N           0     110.926 166.529 141.762  0.00  0.00    -0.244 N 
ATOM     19  C           0     109.641 166.610 139.640  0.00  0.00     0.023 C 
ATOM     20  C           0     108.971 167.459 138.774  0.00  0.00     0.016 C 
ATOM     21  C           0     108.886 167.172 137.420  0.00  0.00     0.002 C 
ATOM     22  C           0     109.499 166.068 136.908  0.00  0.00     0.012 C 
ATOM     23  C           0     110.205 165.198 137.755  0.00  0.00    -0.024 C 
ATOM     24  C           0     111.008 164.172 137.227  0.00  0.00     0.012 C 
ATOM     25  C           0     111.598 163.279 138.069  0.00  0.00     0.002 C 
ATOM     26  C           0     111.378 163.333 139.436  0.00  0.00     0.016 C 
ATOM     27  C           0     110.570 164.321 140.004  0.00  0.00     0.027 C 
ATOM     28  C           0     110.130 165.368 139.162  0.00  0.00     0.002 C 
ATOM     29  C           0     111.418 164.191 143.690  0.00  0.00     0.002 A 
ENDROOT
BRANCH  18  30
ATOM     30  N           0     112.206 166.356 141.317  0.00  0.00    -0.239 NA
ATOM     31  HN1         0     112.348 167.024 140.575  0.00  0.00     0.143 HD
ATOM     32  HN2         0     112.815 166.631 142.074  0.00  0.00     0.143 HD
ENDBRANCH  18  30
TORSDOF 1
ENDMDL
MODEL 6
REMARK VINA RESULT:      -7.2     10.016     12.801
REMARK  1 active torsions:
REMARK  status: ('A' for Active; 'I' for Inactive)
REMARK    1  A    between atoms: N_18  and  N_19 
ROOT
ATOM      1  O           0     108.815 164.185 136.912  0.00  0.00    -0.287 OA
ATOM      2  C           0     109.846 163.677 136.539  0.00  0.00     0.194 C 
ATOM      3  C           0     110.635 162.959 137.538  0.00  0.00     0.027 A 
ATOM      4  C           0     111.054 161.663 137.223  0.00  0.00     0.016 A 
ATOM      5  C           0     111.824 160.907 138.089  0.00  0.00     0.002 A 
ATOM      6  C           0     112.167 161.393 139.312  0.00  0.00     0.012 A 
ATOM      7  C           0     111.728 162.671 139.703  0.00  0.00    -0.024 A 
ATOM      8  C           0     112.007 163.119 141.008  0.00  0.00     0.012 A 
ATOM      9  C           0     111.624 164.362 141.406  0.00  0.00     0.002 A 
ATOM     10  C           0     110.971 165.206 140.522  0.00  0.00     0.016 A 
ATOM     11  C           0     110.686 164.809 139.223  0.00  0.00     0.023 A 
ATOM     12  C           0     110.026 165.737 138.312  0.00  0.00     0.150 C 
ATOM     13  N           0     109.041 166.597 138.424  0.00  0.00    -0.282 N 
ATOM     14  HN          0     108.663 166.949 139.304  1.00  0.00     0.188 HD
ATOM     15  N           0     108.624 166.929 137.242  0.00  0.00    -0.282 N 
ATOM     16  HN          0     107.808 167.509 137.048  1.00  0.00     0.188 HD
ATOM     17  C           0     109.408 166.409 136.340  0.00  0.00     0.150 C 
ATOM     18  N           0     110.526 165.950 137.023  0.00  0.00    -0.244 N 
ATOM     19  C           0     109.257 166.169 134.901  0.00  0.00     0.023 C 
ATOM     20  C           0     108.593 167.072 134.088  0.00  0.00     0.016 C 
ATOM     21  C           0     108.517 166.873 132.717  0.00  0.00     0.002 C 
ATOM     22  C           0     109.135 165.804 132.139  0.00  0.00     0.012 C 
ATOM     23  C           0     109.836 164.881 132.933  0.00  0.00    -0.024 C 
ATOM     24  C           0     110.643 163.892 132.346  0.00  0.00     0.012 C 
ATOM     25  C           0     111.227 162.947 133.133  0.00  0.00     0.002 C 
ATOM     26  C           0     110.997 162.912 134.498  0.00  0.00     0.016 C 
ATOM     27  C           0     110.184 163.861 135.124  0.00  0.00     0.027 C 
ATOM     28  C           0     109.750 164.960 134.347  0.00  0.00     0.002 C 
ATOM     29  C           0     111.006 163.492 138.799  0.00  0.00     0.002 A 
ENDROOT
BRANCH  18  30
ATOM     30  N           0     111.810 165.807 136.577  0.00  0.00    -0.239 NA
ATOM     31  HN1         0     112.076 166.691 136.170  0.00  0.00     0.143 HD
ATOM     32  HN2         0     112.388 165.679 137.394  0.00  0.00     0.143 HD
ENDBRANCH  18  30
TORSDOF 1
ENDMDL
MODEL 7
REMARK VINA RESULT:      -7.2      2.188      4.113
REMARK  1 active torsions:
REMARK  status: ('A' for Active; 'I' for Inactive)
REMARK    1  A    between atoms: N_18  and  N_19 
ROOT
ATOM      1  O           0     110.320 174.809 138.589  0.00  0.00    -0.287 OA
ATOM      2  C           0     111.375 175.363 138.392  0.00  0.00     0.194 C 
ATOM      3  C           0     111.847 175.426 137.010  0.00  0.00     0.027 A 
ATOM      4  C           0     112.244 176.673 136.517  0.00  0.00     0.016 A 
ATOM      5  C           0     112.728 176.837 135.232  0.00  0.00     0.002 A 
ATOM      6  C           0     112.793 175.779 134.378  0.00  0.00     0.012 A 
ATOM      7  C           0     112.357 174.512 134.803  0.00  0.00    -0.024 A 
ATOM      8  C           0     112.337 173.451 133.878  0.00  0.00     0.012 A 
ATOM      9  C           0     111.952 172.205 134.267  0.00  0.00     0.002 A 
ATOM     10  C           0     111.591 171.967 135.584  0.00  0.00     0.016 A 
ATOM     11  C           0     111.606 172.982 136.531  0.00  0.00     0.023 A 
ATOM     12  C           0     111.251 172.685 137.913  0.00  0.00     0.150 C 
ATOM     13  N           0     110.328 171.954 138.493  0.00  0.00    -0.282 N 
ATOM     14  HN          0     109.771 171.234 138.033  1.00  0.00     0.188 HD
ATOM     15  N           0     110.235 172.291 139.742  0.00  0.00    -0.282 N 
ATOM     16  HN          0     109.531 171.944 140.393  1.00  0.00     0.188 HD
ATOM     17  C           0     111.179 173.139 140.037  0.00  0.00     0.150 C 
ATOM     18  N           0     112.064 173.115 138.968  0.00  0.00    -0.244 N 
ATOM     19  C           0     111.368 174.079 141.147  0.00  0.00     0.023 C 
ATOM     20  C           0     110.984 173.755 142.437  0.00  0.00     0.016 C 
ATOM     21  C           0     111.233 174.620 143.493  0.00  0.00     0.002 C 
ATOM     22  C           0     111.901 175.790 143.284  0.00  0.00     0.012 C 
ATOM     23  C           0     112.324 176.138 141.990  0.00  0.00    -0.024 C 
ATOM     24  C           0     113.184 177.231 141.784  0.00  0.00     0.012 C 
ATOM     25  C           0     113.495 177.611 140.513  0.00  0.00     0.002 C 
ATOM     26  C           0     112.936 176.970 139.419  0.00  0.00     0.016 C 
ATOM     27  C           0     112.060 175.893 139.576  0.00  0.00     0.027 C 
ATOM     28  C           0     111.901 175.365 140.878  0.00  0.00     0.002 C 
ATOM     29  C           0     111.933 174.307 136.142  0.00  0.00     0.002 A 
ENDROOT
BRANCH  18  30
ATOM     30  N           0     113.406 173.375 138.954  0.00  0.00    -0.239 NA
ATOM     31  HN1         0     113.677 173.557 139.908  0.00  0.00     0.143 HD
ATOM     32  HN2         0     113.864 172.517 138.681  0.00  0.00     0.143 HD
ENDBRANCH  18  30
TORSDOF 1
ENDMDL
MODEL 8
REMARK VINA RESULT:      -7.2      9.648     11.742
REMARK  1 active torsions:
REMARK  status: ('A' for Active; 'I' for Inactive)
REMARK    1  A    between atoms: N_18  and  N_19 
ROOT
ATOM      1  O           0     110.144 163.176 141.896  0.00  0.00    -0.287 OA
ATOM      2  C           0     110.477 164.237 141.426  0.00  0.00     0.194 C 
ATOM      3  C           0     110.663 164.295 139.977  0.00  0.00     0.027 A 
ATOM      4  C           0     110.022 165.325 139.281  0.00  0.00     0.016 A 
ATOM      5  C           0     110.152 165.481 137.913  0.00  0.00     0.002 A 
ATOM      6  C           0     110.886 164.598 137.183  0.00  0.00     0.012 A 
ATOM      7  C           0     111.510 163.512 137.823  0.00  0.00    -0.024 A 
ATOM      8  C           0     112.181 162.553 137.042  0.00  0.00     0.012 A 
ATOM      9  C           0     112.822 161.509 137.634  0.00  0.00     0.002 A 
ATOM     10  C           0     112.834 161.391 139.015  0.00  0.00     0.016 A 
ATOM     11  C           0     112.193 162.320 139.823  0.00  0.00     0.023 A 
ATOM     12  C           0     112.255 162.180 141.273  0.00  0.00     0.150 C 
ATOM     13  N           0     112.168 161.171 142.108  0.00  0.00    -0.282 N 
ATOM     14  HN          0     112.254 160.187 141.854  1.00  0.00     0.188 HD
ATOM     15  N           0     111.954 161.621 143.306  0.00  0.00    -0.282 N 
ATOM     16  HN          0     111.753 161.045 144.123  1.00  0.00     0.188 HD
ATOM     17  C           0     112.036 162.921 143.304  0.00  0.00     0.150 C 
ATOM     18  N           0     112.597 163.269 142.083  0.00  0.00    -0.244 N 
ATOM     19  C           0     111.582 163.954 144.242  0.00  0.00     0.023 C 
ATOM     20  C           0     111.636 163.754 145.612  0.00  0.00     0.016 C 
ATOM     21  C           0     111.273 164.762 146.493  0.00  0.00     0.002 C 
ATOM     22  C           0     110.897 165.986 146.025  0.00  0.00     0.012 C 
ATOM     23  C           0     110.854 166.229 144.642  0.00  0.00    -0.024 C 
ATOM     24  C           0     110.666 167.530 144.144  0.00  0.00     0.012 C 
ATOM     25  C           0     110.523 167.722 142.803  0.00  0.00     0.002 C 
ATOM     26  C           0     110.507 166.651 141.925  0.00  0.00     0.016 C 
ATOM     27  C           0     110.667 165.338 142.376  0.00  0.00     0.027 C 
ATOM     28  C           0     111.025 165.153 143.732  0.00  0.00     0.002 C 
ATOM     29  C           0     111.454 163.380 139.235  0.00  0.00     0.002 A 
ENDROOT
BRANCH  18  30
ATOM     30  N           0     113.352 164.361 141.761  0.00  0.00    -0.239 NA
ATOM     31  HN1         0     114.023 164.058 141.072  0.00  0.00     0.143 HD
ATOM     32  HN2         0     112.736 165.014 141.298  0.00  0.00     0.143 HD
ENDBRANCH  18  30
TORSDOF 1
ENDMDL
MODEL 9
REMARK VINA RESULT:      -7.1      7.707     10.719
REMARK  1 active torsions:
REMARK  status: ('A' for Active; 'I' for Inactive)
REMARK    1  A    between atoms: N_18  and  N_19 
ROOT
ATOM      1  O           0     108.750 166.234 141.935  0.00  0.00    -0.287 OA
ATOM      2  C           0     109.839 165.712 141.919  0.00  0.00     0.194 C 
ATOM      3  C           0     110.553 165.619 143.190  0.00  0.00     0.027 A 
ATOM      4  C           0     111.069 164.371 143.554  0.00  0.00     0.016 A 
ATOM      5  C           0     111.780 164.181 144.725  0.00  0.00     0.002 A 
ATOM      6  C           0     111.966 165.211 145.595  0.00  0.00     0.012 A 
ATOM      7  C           0     111.423 166.475 145.306  0.00  0.00    -0.024 A 
ATOM      8  C           0     111.538 167.502 146.262  0.00  0.00     0.012 A 
ATOM      9  C           0     111.053 168.746 145.998  0.00  0.00     0.002 A 
ATOM     10  C           0     110.455 169.016 144.777  0.00  0.00     0.016 A 
ATOM     11  C           0     110.330 168.035 143.803  0.00  0.00     0.023 A 
ATOM     12  C           0     109.724 168.366 142.519  0.00  0.00     0.150 C 
ATOM     13  N           0     108.690 169.082 142.143  0.00  0.00    -0.282 N 
ATOM     14  HN          0     108.203 169.765 142.724  1.00  0.00     0.188 HD
ATOM     15  N           0     108.384 168.786 140.918  0.00  0.00    -0.282 N 
ATOM     16  HN          0     107.565 169.128 140.417  1.00  0.00     0.188 HD
ATOM     17  C           0     109.285 167.983 140.425  0.00  0.00     0.150 C 
ATOM     18  N           0     110.347 168.002 141.320  0.00  0.00    -0.244 N 
ATOM     19  C           0     109.300 167.088 139.263  0.00  0.00     0.023 C 
ATOM     20  C           0     108.681 167.443 138.076  0.00  0.00     0.016 C 
ATOM     21  C           0     108.762 166.623 136.959  0.00  0.00     0.002 C 
ATOM     22  C           0     109.491 165.472 136.998  0.00  0.00     0.012 C 
ATOM     23  C           0     110.150 165.095 138.181  0.00  0.00    -0.024 C 
ATOM     24  C           0     111.065 164.028 138.187  0.00  0.00     0.012 C 
ATOM     25  C           0     111.610 163.617 139.365  0.00  0.00     0.002 C 
ATOM     26  C           0     111.238 164.199 140.566  0.00  0.00     0.016 C 
ATOM     27  C           0     110.316 165.248 140.612  0.00  0.00     0.027 C 
ATOM     28  C           0     109.911 165.814 139.381  0.00  0.00     0.002 C 
ATOM     29  C           0     110.760 166.710 144.074  0.00  0.00     0.002 A 
ENDROOT
BRANCH  18  30
ATOM     30  N           0     111.676 167.791 141.085  0.00  0.00    -0.239 NA
ATOM     31  HN1         0     111.742 166.970 140.502  0.00  0.00     0.143 HD
ATOM     32  HN2         0     111.999 168.568 140.527  0.00  0.00     0.143 HD
ENDBRANCH  18  30
TORSDOF 1
ENDMDL
