MODEL 1
REMARK VINA RESULT:      -8.8      0.000      0.000
REMARK  0 active torsions:
REMARK  status: ('A' for Active; 'I' for Inactive)
ROOT
ATOM      1  O           0     113.046 174.898 140.133  0.00  0.00    -0.287 OA
ATOM      2  C           0     112.098 174.193 140.389  0.00  0.00     0.194 C 
ATOM      3  C           0     111.494 173.465 139.276  0.00  0.00     0.027 A 
ATOM      4  C           0     111.253 172.099 139.450  0.00  0.00     0.016 A 
ATOM      5  C           0     110.672 171.322 138.463  0.00  0.00     0.002 A 
ATOM      6  C           0     110.357 171.861 137.254  0.00  0.00     0.012 A 
ATOM      7  C           0     110.631 173.218 137.004  0.00  0.00    -0.024 A 
ATOM      8  C           0     110.414 173.732 135.713  0.00  0.00     0.012 C 
ATOM      9  C           0     110.619 175.053 135.454  0.00  0.00     0.002 C 
ATOM     10  C           0     111.024 175.907 136.467  0.00  0.00     0.016 C 
ATOM     11  C           0     111.244 175.440 137.755  0.00  0.00     0.024 C 
ATOM     12  C           0     111.626 176.379 138.808  0.00  0.00     0.166 C 
ATOM     13  N           0     112.334 177.482 138.847  0.00  0.00    -0.281 N 
ATOM     14  HN          0     112.611 178.033 138.035  1.00  0.00     0.188 HD
ATOM     15  N           0     112.626 177.764 140.080  0.00  0.00    -0.281 N 
ATOM     16  HN          0     113.242 178.521 140.380  1.00  0.00     0.188 HD
ATOM     17  C           0     112.015 176.936 140.876  0.00  0.00     0.166 C 
ATOM     18  N           0     111.096 176.248 140.093  0.00  0.00    -0.142 N 
ATOM     19  F           0     109.997 175.656 140.459  0.00  0.00    -0.090 F 
ATOM     20  C           0     112.185 176.571 142.288  0.00  0.00     0.024 C 
ATOM     21  C           0     112.679 177.474 143.214  0.00  0.00     0.016 C 
ATOM     22  C           0     112.755 177.139 144.559  0.00  0.00     0.002 C 
ATOM     23  C           0     112.297 175.932 144.998  0.00  0.00     0.012 C 
ATOM     24  C           0     111.766 175.007 144.086  0.00  0.00    -0.024 C 
ATOM     25  C           0     111.093 173.855 144.528  0.00  0.00     0.012 C 
ATOM     26  C           0     110.685 172.925 143.620  0.00  0.00     0.002 C 
ATOM     27  C           0     110.971 173.066 142.273  0.00  0.00     0.016 C 
ATOM     28  C           0     111.664 174.180 141.789  0.00  0.00     0.027 C 
ATOM     29  C           0     111.883 175.247 142.691  0.00  0.00     0.002 C 
ATOM     30  C           0     111.129 174.054 138.037  0.00  0.00     0.002 A 
ENDROOT
TORSDOF 0
ENDMDL
MODEL 2
REMARK VINA RESULT:      -8.4      1.184      5.753
REMARK  0 active torsions:
REMARK  status: ('A' for Active; 'I' for Inactive)
ROOT
ATOM      1  O           0     110.548 176.079 140.715  0.00  0.00    -0.287 OA
ATOM      2  C           0     110.909 174.948 140.947  0.00  0.00     0.194 C 
ATOM      3  C           0     111.360 174.663 142.306  0.00  0.00     0.027 A 
ATOM      4  C           0     110.836 173.531 142.938  0.00  0.00     0.016 A 
ATOM      5  C           0     111.208 173.165 144.219  0.00  0.00     0.002 A 
ATOM      6  C           0     112.073 173.933 144.935  0.00  0.00     0.012 A 
ATOM      7  C           0     112.588 175.114 144.368  0.00  0.00    -0.024 A 
ATOM      8  C           0     113.383 175.962 145.161  0.00  0.00     0.012 C 
ATOM      9  C           0     113.938 177.084 144.626  0.00  0.00     0.002 C 
ATOM     10  C           0     113.742 177.389 143.289  0.00  0.00     0.016 C 
ATOM     11  C           0     112.967 176.577 142.473  0.00  0.00     0.024 C 
ATOM     12  C           0     112.819 176.907 141.057  0.00  0.00     0.166 C 
ATOM     13  N           0     112.770 178.023 140.370  0.00  0.00    -0.281 N 
ATOM     14  HN          0     113.042 178.942 140.719  1.00  0.00     0.188 HD
ATOM     15  N           0     112.322 177.777 139.177  0.00  0.00    -0.281 N 
ATOM     16  HN          0     112.103 178.484 138.474  1.00  0.00     0.188 HD
ATOM     17  C           0     112.193 176.493 139.014  0.00  0.00     0.166 C 
ATOM     18  N           0     112.830 175.895 140.094  0.00  0.00    -0.142 N 
ATOM     19  F           0     113.340 174.701 140.179  0.00  0.00    -0.090 F 
ATOM     20  C           0     111.475 175.660 138.040  0.00  0.00     0.024 C 
ATOM     21  C           0     111.253 176.091 136.743  0.00  0.00     0.016 C 
ATOM     22  C           0     110.647 175.256 135.814  0.00  0.00     0.002 C 
ATOM     23  C           0     110.306 173.980 136.149  0.00  0.00     0.012 C 
ATOM     24  C           0     110.543 173.507 137.450  0.00  0.00    -0.024 C 
ATOM     25  C           0     110.404 172.143 137.762  0.00  0.00     0.012 C 
ATOM     26  C           0     110.537 171.734 139.055  0.00  0.00     0.002 C 
ATOM     27  C           0     110.750 172.645 140.076  0.00  0.00     0.016 C 
ATOM     28  C           0     110.865 174.014 139.818  0.00  0.00     0.027 C 
ATOM     29  C           0     110.957 174.410 138.463  0.00  0.00     0.002 C 
ATOM     30  C           0     112.299 175.452 143.021  0.00  0.00     0.002 A 
ENDROOT
TORSDOF 0
ENDMDL
MODEL 3
REMARK VINA RESULT:      -8.2     10.021     12.870
REMARK  0 active torsions:
REMARK  status: ('A' for Active; 'I' for Inactive)
ROOT
ATOM      1  O           0     112.025 164.596 137.130  0.00  0.00    -0.287 OA
ATOM      2  C           0     110.932 164.929 137.525  0.00  0.00     0.194 C 
ATOM      3  C           0     110.699 164.861 138.966  0.00  0.00     0.027 A 
ATOM      4  C           0     110.132 165.980 139.584  0.00  0.00     0.016 A 
ATOM      5  C           0     109.859 166.013 140.939  0.00  0.00     0.002 A 
ATOM      6  C           0     110.183 164.959 141.736  0.00  0.00     0.012 A 
ATOM      7  C           0     110.808 163.829 141.177  0.00  0.00    -0.024 A 
ATOM      8  C           0     111.248 162.800 142.029  0.00  0.00     0.012 C 
ATOM      9  C           0     111.808 161.671 141.512  0.00  0.00     0.002 C 
ATOM     10  C           0     111.930 161.518 140.141  0.00  0.00     0.016 C 
ATOM     11  C           0     111.505 162.509 139.267  0.00  0.00     0.024 C 
ATOM     12  C           0     111.608 162.292 137.825  0.00  0.00     0.166 C 
ATOM     13  N           0     112.448 161.655 137.046  0.00  0.00    -0.281 N 
ATOM     14  HN          0     113.140 160.973 137.358  1.00  0.00     0.188 HD
ATOM     15  N           0     112.263 162.024 135.816  0.00  0.00    -0.281 N 
ATOM     16  HN          0     112.844 161.746 135.025  1.00  0.00     0.188 HD
ATOM     17  C           0     111.224 162.805 135.745  0.00  0.00     0.166 C 
ATOM     18  N           0     110.585 162.718 136.975  0.00  0.00    -0.142 N 
ATOM     19  F           0     109.335 162.944 137.261  0.00  0.00    -0.090 F 
ATOM     20  C           0     110.724 163.740 134.729  0.00  0.00     0.024 C 
ATOM     21  C           0     110.971 163.545 133.381  0.00  0.00     0.016 C 
ATOM     22  C           0     110.420 164.394 132.431  0.00  0.00     0.002 C 
ATOM     23  C           0     109.586 165.404 132.806  0.00  0.00     0.012 C 
ATOM     24  C           0     109.296 165.610 134.164  0.00  0.00    -0.024 C 
ATOM     25  C           0     108.279 166.495 134.563  0.00  0.00     0.012 C 
ATOM     26  C           0     108.095 166.752 135.888  0.00  0.00     0.002 C 
ATOM     27  C           0     108.929 166.201 136.847  0.00  0.00     0.016 C 
ATOM     28  C           0     109.972 165.339 136.496  0.00  0.00     0.027 C 
ATOM     29  C           0     110.018 164.894 135.154  0.00  0.00     0.002 C 
ATOM     30  C           0     111.002 163.734 139.774  0.00  0.00     0.002 A 
ENDROOT
TORSDOF 0
ENDMDL
MODEL 4
REMARK VINA RESULT:      -8.1      8.856     12.356
REMARK  0 active torsions:
REMARK  status: ('A' for Active; 'I' for Inactive)
ROOT
ATOM      1  O           0     112.603 164.573 141.196  0.00  0.00    -0.287 OA
ATOM      2  C           0     111.557 165.134 140.968  0.00  0.00     0.194 C 
ATOM      3  C           0     111.064 166.055 141.990  0.00  0.00     0.027 A 
ATOM      4  C           0     110.655 167.325 141.573  0.00  0.00     0.016 A 
ATOM      5  C           0     110.160 168.266 142.458  0.00  0.00     0.002 A 
ATOM      6  C           0     110.099 167.998 143.791  0.00  0.00     0.012 A 
ATOM      7  C           0     110.551 166.756 144.272  0.00  0.00    -0.024 A 
ATOM      8  C           0     110.598 166.538 145.661  0.00  0.00     0.012 C 
ATOM      9  C           0     110.980 165.328 146.156  0.00  0.00     0.002 C 
ATOM     10  C           0     111.307 164.294 145.293  0.00  0.00     0.016 C 
ATOM     11  C           0     111.270 164.468 143.917  0.00  0.00     0.024 C 
ATOM     12  C           0     111.577 163.341 143.038  0.00  0.00     0.166 C 
ATOM     13  N           0     112.382 162.309 143.110  0.00  0.00    -0.281 N 
ATOM     14  HN          0     112.842 161.978 143.958  1.00  0.00     0.188 HD
ATOM     15  N           0     112.503 161.772 141.934  0.00  0.00    -0.281 N 
ATOM     16  HN          0     113.140 161.011 141.698  1.00  0.00     0.188 HD
ATOM     17  C           0     111.689 162.353 141.102  0.00  0.00     0.166 C 
ATOM     18  N           0     110.839 163.138 141.870  0.00  0.00    -0.142 N 
ATOM     19  F           0     109.638 163.555 141.588  0.00  0.00    -0.090 F 
ATOM     20  C           0     111.593 162.396 139.637  0.00  0.00     0.024 C 
ATOM     21  C           0     112.027 161.340 138.853  0.00  0.00     0.016 C 
ATOM     22  C           0     111.852 161.363 137.476  0.00  0.00     0.002 C 
ATOM     23  C           0     111.205 162.404 136.878  0.00  0.00     0.012 C 
ATOM     24  C           0     110.731 163.475 137.651  0.00  0.00    -0.024 C 
ATOM     25  C           0     109.878 164.447 137.100  0.00  0.00     0.012 C 
ATOM     26  C           0     109.523 165.530 137.845  0.00  0.00     0.002 C 
ATOM     27  C           0     110.033 165.721 139.119  0.00  0.00     0.016 C 
ATOM     28  C           0     110.908 164.797 139.698  0.00  0.00     0.027 C 
ATOM     29  C           0     111.093 163.569 139.021  0.00  0.00     0.002 C 
ATOM     30  C           0     110.965 165.741 143.371  0.00  0.00     0.002 A 
ENDROOT
TORSDOF 0
ENDMDL
MODEL 5
REMARK VINA RESULT:      -8.0      8.614     10.287
REMARK  0 active torsions:
REMARK  status: ('A' for Active; 'I' for Inactive)
ROOT
ATOM      1  O           0     112.029 165.696 140.679  0.00  0.00    -0.287 OA
ATOM      2  C           0     111.533 164.610 140.485  0.00  0.00     0.194 C 
ATOM      3  C           0     110.911 164.389 139.183  0.00  0.00     0.027 A 
ATOM      4  C           0     111.247 163.219 138.494  0.00  0.00     0.016 A 
ATOM      5  C           0     110.703 162.910 137.261  0.00  0.00     0.002 A 
ATOM      6  C           0     109.847 163.770 136.646  0.00  0.00     0.012 A 
ATOM      7  C           0     109.518 164.988 137.268  0.00  0.00    -0.024 A 
ATOM      8  C           0     108.730 165.921 136.569  0.00  0.00     0.012 C 
ATOM      9  C           0     108.352 167.085 137.165  0.00  0.00     0.002 C 
ATOM     10  C           0     108.722 167.352 138.472  0.00  0.00     0.016 C 
ATOM     11  C           0     109.495 166.456 139.197  0.00  0.00     0.024 C 
ATOM     12  C           0     109.828 166.750 140.589  0.00  0.00     0.166 C 
ATOM     13  N           0     110.064 167.847 141.269  0.00  0.00    -0.281 N 
ATOM     14  HN          0     109.849 168.793 140.954  1.00  0.00     0.188 HD
ATOM     15  N           0     110.612 167.542 142.405  0.00  0.00    -0.281 N 
ATOM     16  HN          0     110.975 168.214 143.082  1.00  0.00     0.188 HD
ATOM     17  C           0     110.628 166.249 142.551  0.00  0.00     0.166 C 
ATOM     18  N           0     109.821 165.732 141.545  0.00  0.00    -0.142 N 
ATOM     19  F           0     109.188 164.596 141.513  0.00  0.00    -0.090 F 
ATOM     20  C           0     111.360 165.336 143.438  0.00  0.00     0.024 C 
ATOM     21  C           0     111.764 165.725 144.704  0.00  0.00     0.016 C 
ATOM     22  C           0     112.380 164.822 145.559  0.00  0.00     0.002 C 
ATOM     23  C           0     112.554 163.523 145.185  0.00  0.00     0.012 C 
ATOM     24  C           0     112.131 163.093 143.918  0.00  0.00    -0.024 C 
ATOM     25  C           0     112.097 161.727 143.588  0.00  0.00     0.012 C 
ATOM     26  C           0     111.784 161.350 142.317  0.00  0.00     0.002 C 
ATOM     27  C           0     111.554 162.291 141.327  0.00  0.00     0.016 C 
ATOM     28  C           0     111.606 163.661 141.600  0.00  0.00     0.027 C 
ATOM     29  C           0     111.702 164.047 142.958  0.00  0.00     0.002 C 
ATOM     30  C           0     109.983 165.277 138.577  0.00  0.00     0.002 A 
ENDROOT
TORSDOF 0
ENDMDL
MODEL 6
REMARK VINA RESULT:      -8.0      9.790     13.566
REMARK  0 active torsions:
REMARK  status: ('A' for Active; 'I' for Inactive)
ROOT
ATOM      1  O           0     112.447 163.718 136.828  0.00  0.00    -0.287 OA
ATOM      2  C           0     111.382 164.259 136.643  0.00  0.00     0.194 C 
ATOM      3  C           0     110.831 165.032 137.753  0.00  0.00     0.027 A 
ATOM      4  C           0     110.375 166.325 137.478  0.00  0.00     0.016 A 
ATOM      5  C           0     109.823 167.134 138.455  0.00  0.00     0.002 A 
ATOM      6  C           0     109.751 166.710 139.745  0.00  0.00     0.012 A 
ATOM      7  C           0     110.247 165.439 140.089  0.00  0.00    -0.024 A 
ATOM      8  C           0     110.278 165.061 141.444  0.00  0.00     0.012 C 
ATOM      9  C           0     110.703 163.819 141.803  0.00  0.00     0.002 C 
ATOM     10  C           0     111.090 162.907 140.834  0.00  0.00     0.016 C 
ATOM     11  C           0     111.070 163.240 139.487  0.00  0.00     0.024 C 
ATOM     12  C           0     111.442 162.238 138.490  0.00  0.00     0.166 C 
ATOM     13  N           0     112.290 161.237 138.460  0.00  0.00    -0.281 N 
ATOM     14  HN          0     112.748 160.828 139.274  1.00  0.00     0.188 HD
ATOM     15  N           0     112.455 160.848 137.232  0.00  0.00    -0.281 N 
ATOM     16  HN          0     113.129 160.146 136.924  1.00  0.00     0.188 HD
ATOM     17  C           0     111.632 161.489 136.455  0.00  0.00     0.166 C 
ATOM     18  N           0     110.734 162.143 137.289  0.00  0.00    -0.142 N 
ATOM     19  F           0     109.523 162.540 137.030  0.00  0.00    -0.090 F 
ATOM     20  C           0     111.561 161.699 135.003  0.00  0.00     0.024 C 
ATOM     21  C           0     112.054 160.762 134.111  0.00  0.00     0.016 C 
ATOM     22  C           0     111.904 160.939 132.743  0.00  0.00     0.002 C 
ATOM     23  C           0     111.223 162.015 132.255  0.00  0.00     0.012 C 
ATOM     24  C           0     110.689 162.968 133.137  0.00  0.00    -0.024 C 
ATOM     25  C           0     109.805 163.962 132.683  0.00  0.00     0.012 C 
ATOM     26  C           0     109.390 164.935 133.541  0.00  0.00     0.002 C 
ATOM     27  C           0     109.868 164.996 134.840  0.00  0.00     0.016 C 
ATOM     28  C           0     110.771 164.047 135.327  0.00  0.00     0.027 C 
ATOM     29  C           0     111.022 162.916 134.516  0.00  0.00     0.002 C 
ATOM     30  C           0     110.721 164.555 139.085  0.00  0.00     0.002 A 
ENDROOT
TORSDOF 0
ENDMDL
MODEL 7
REMARK VINA RESULT:      -8.0      7.669      8.893
REMARK  0 active torsions:
REMARK  status: ('A' for Active; 'I' for Inactive)
ROOT
ATOM      1  O           0     111.199 167.423 141.367  0.00  0.00    -0.287 OA
ATOM      2  C           0     111.035 166.235 141.516  0.00  0.00     0.194 C 
ATOM      3  C           0     110.917 165.426 140.306  0.00  0.00     0.027 A 
ATOM      4  C           0     111.697 164.268 140.222  0.00  0.00     0.016 A 
ATOM      5  C           0     111.649 163.427 139.126  0.00  0.00     0.002 A 
ATOM      6  C           0     110.867 163.729 138.054  0.00  0.00     0.012 A 
ATOM      7  C           0     110.105 164.912 138.060  0.00  0.00    -0.024 A 
ATOM      8  C           0     109.398 165.274 136.900  0.00  0.00     0.012 C 
ATOM      9  C           0     108.610 166.385 136.893  0.00  0.00     0.002 C 
ATOM     10  C           0     108.482 167.156 138.036  0.00  0.00     0.016 C 
ATOM     11  C           0     109.161 166.830 139.202  0.00  0.00     0.024 C 
ATOM     12  C           0     108.966 167.641 140.402  0.00  0.00     0.166 C 
ATOM     13  N           0     108.734 168.912 140.628  0.00  0.00    -0.281 N 
ATOM     14  HN          0     108.432 169.590 139.928  1.00  0.00     0.188 HD
ATOM     15  N           0     108.948 169.174 141.881  0.00  0.00    -0.281 N 
ATOM     16  HN          0     108.926 170.105 142.299  1.00  0.00     0.188 HD
ATOM     17  C           0     109.195 168.070 142.524  0.00  0.00     0.166 C 
ATOM     18  N           0     108.877 167.033 141.656  0.00  0.00    -0.142 N 
ATOM     19  F           0     108.545 165.807 141.940  0.00  0.00    -0.090 F 
ATOM     20  C           0     109.788 167.767 143.833  0.00  0.00     0.024 C 
ATOM     21  C           0     109.678 168.646 144.898  0.00  0.00     0.016 C 
ATOM     22  C           0     110.172 168.306 146.149  0.00  0.00     0.002 C 
ATOM     23  C           0     110.729 167.080 146.364  0.00  0.00     0.012 C 
ATOM     24  C           0     110.830 166.159 145.310  0.00  0.00    -0.024 C 
ATOM     25  C           0     111.196 164.823 145.546  0.00  0.00     0.012 C 
ATOM     26  C           0     111.389 163.983 144.491  0.00  0.00     0.002 C 
ATOM     27  C           0     111.287 164.436 143.186  0.00  0.00     0.016 C 
ATOM     28  C           0     110.954 165.764 142.902  0.00  0.00     0.027 C 
ATOM     29  C           0     110.532 166.571 143.984  0.00  0.00     0.002 C 
ATOM     30  C           0     110.061 165.734 139.216  0.00  0.00     0.002 A 
ENDROOT
TORSDOF 0
ENDMDL
MODEL 8
REMARK VINA RESULT:      -7.9      9.181     12.179
REMARK  0 active torsions:
REMARK  status: ('A' for Active; 'I' for Inactive)
ROOT
ATOM      1  O           0     112.491 164.902 141.145  0.00  0.00    -0.287 OA
ATOM      2  C           0     111.479 165.398 141.583  0.00  0.00     0.194 C 
ATOM      3  C           0     111.359 165.484 143.036  0.00  0.00     0.027 A 
ATOM      4  C           0     110.975 166.713 143.583  0.00  0.00     0.016 A 
ATOM      5  C           0     110.820 166.896 144.945  0.00  0.00     0.002 A 
ATOM      6  C           0     111.087 165.884 145.814  0.00  0.00     0.012 A 
ATOM      7  C           0     111.532 164.643 145.323  0.00  0.00    -0.024 A 
ATOM      8  C           0     111.922 163.647 146.236  0.00  0.00     0.012 C 
ATOM      9  C           0     112.306 162.418 145.792  0.00  0.00     0.002 C 
ATOM     10  C           0     112.297 162.132 144.437  0.00  0.00     0.016 C 
ATOM     11  C           0     111.916 163.087 143.505  0.00  0.00     0.024 C 
ATOM     12  C           0     111.875 162.735 142.087  0.00  0.00     0.166 C 
ATOM     13  N           0     112.571 161.935 141.314  0.00  0.00    -0.281 N 
ATOM     14  HN          0     113.204 161.206 141.640  1.00  0.00     0.188 HD
ATOM     15  N           0     112.328 162.216 140.071  0.00  0.00    -0.281 N 
ATOM     16  HN          0     112.807 161.802 139.270  1.00  0.00     0.188 HD
ATOM     17  C           0     111.381 163.106 139.999  0.00  0.00     0.166 C 
ATOM     18  N           0     110.840 163.205 141.275  0.00  0.00    -0.142 N 
ATOM     19  F           0     109.652 163.603 141.626  0.00  0.00    -0.090 F 
ATOM     20  C           0     110.909 164.003 138.937  0.00  0.00     0.024 C 
ATOM     21  C           0     111.021 163.663 137.599  0.00  0.00     0.016 C 
ATOM     22  C           0     110.493 164.486 136.613  0.00  0.00     0.002 C 
ATOM     23  C           0     109.811 165.618 136.948  0.00  0.00     0.012 C 
ATOM     24  C           0     109.659 165.974 138.298  0.00  0.00    -0.024 C 
ATOM     25  C           0     108.786 167.006 138.682  0.00  0.00     0.012 C 
ATOM     26  C           0     108.742 167.399 139.986  0.00  0.00     0.002 C 
ATOM     27  C           0     109.584 166.837 140.931  0.00  0.00     0.016 C 
ATOM     28  C           0     110.490 165.829 140.590  0.00  0.00     0.027 C 
ATOM     29  C           0     110.375 165.266 139.298  0.00  0.00     0.002 C 
ATOM     30  C           0     111.598 164.404 143.926  0.00  0.00     0.002 A 
ENDROOT
TORSDOF 0
ENDMDL
MODEL 9
REMARK VINA RESULT:      -7.6      8.562     11.038
REMARK  0 active torsions:
REMARK  status: ('A' for Active; 'I' for Inactive)
ROOT
ATOM      1  O           0     111.559 165.592 136.748  0.00  0.00    -0.287 OA
ATOM      2  C           0     111.326 164.503 137.218  0.00  0.00     0.194 C 
ATOM      3  C           0     111.501 163.351 136.338  0.00  0.00     0.027 A 
ATOM      4  C           0     112.239 162.268 136.828  0.00  0.00     0.016 A 
ATOM      5  C           0     112.452 161.125 136.080  0.00  0.00     0.002 A 
ATOM      6  C           0     111.985 161.033 134.805  0.00  0.00     0.012 A 
ATOM      7  C           0     111.284 162.116 134.242  0.00  0.00    -0.024 A 
ATOM      8  C           0     110.914 162.058 132.886  0.00  0.00     0.012 C 
ATOM      9  C           0     110.190 163.066 132.327  0.00  0.00     0.002 C 
ATOM     10  C           0     109.794 164.149 133.094  0.00  0.00     0.016 C 
ATOM     11  C           0     110.136 164.242 134.436  0.00  0.00     0.024 C 
ATOM     12  C           0     109.662 165.377 135.226  0.00  0.00     0.166 C 
ATOM     13  N           0     109.419 166.640 134.971  0.00  0.00    -0.281 N 
ATOM     14  HN          0     109.330 167.047 134.040  1.00  0.00     0.188 HD
ATOM     15  N           0     109.308 167.293 136.087  0.00  0.00    -0.281 N 
ATOM     16  HN          0     109.207 168.305 136.169  1.00  0.00     0.188 HD
ATOM     17  C           0     109.345 166.460 137.087  0.00  0.00     0.166 C 
ATOM     18  N           0     109.231 165.188 136.541  0.00  0.00    -0.142 N 
ATOM     19  F           0     108.799 164.097 137.103  0.00  0.00    -0.090 F 
ATOM     20  C           0     109.568 166.615 138.530  0.00  0.00     0.024 C 
ATOM     21  C           0     109.213 167.776 139.196  0.00  0.00     0.016 C 
ATOM     22  C           0     109.354 167.873 140.574  0.00  0.00     0.002 C 
ATOM     23  C           0     109.798 166.808 141.300  0.00  0.00     0.012 C 
ATOM     24  C           0     110.141 165.609 140.654  0.00  0.00    -0.024 C 
ATOM     25  C           0     110.391 164.436 141.387  0.00  0.00     0.012 C 
ATOM     26  C           0     110.825 163.319 140.738  0.00  0.00     0.002 C 
ATOM     27  C           0     111.079 163.335 139.377  0.00  0.00     0.016 C 
ATOM     28  C           0     110.873 164.487 138.612  0.00  0.00     0.027 C 
ATOM     29  C           0     110.209 165.568 139.237  0.00  0.00     0.002 C 
ATOM     30  C           0     110.967 163.255 135.026  0.00  0.00     0.002 A 
ENDROOT
TORSDOF 0
ENDMDL
